@<TRIPOS>MOLECULE
tmp/1xl7A01.pdb
 111 106 0 0 0
SMALL
GASTEIGER

@<TRIPOS>ATOM
      1  N         -4.0190  136.1740   72.2000 N.3    93  PHE93      -0.1241
      2  CA        -5.2480  135.6900   71.5920 C.3    93  PHE93       0.1605
      3  C         -4.9350  135.4140   70.1280 C.2    93  PHE93       0.2264
      4  O         -4.0280  136.0210   69.5510 O.2    93  PHE93      -0.2867
      5  CB        -6.4080  136.6940   71.7460 C.3    93  PHE93       0.0534
      6  CG        -6.1540  138.0560   71.1520 C.ar   93  PHE93      -0.0203
      7  CD1       -6.2630  138.2720   69.7820 C.ar   93  PHE93      -0.0042
      8  CD2       -5.8720  139.1400   71.9780 C.ar   93  PHE93      -0.0042
      9  CE1       -6.0990  139.5600   69.2420 C.ar   93  PHE93      -0.0003
     10  CE2       -5.7070  140.4220   71.4520 C.ar   93  PHE93      -0.0003
     11  CZ        -5.8230  140.6300   70.0800 C.ar   93  PHE93      -0.0000
     12  N         -1.8910  140.2620   73.9350 N.3   311  HIS311     -0.1241
     13  CA        -3.1030  140.8760   74.4750 C.3   311  HIS311      0.1621
     14  C         -2.8190  142.1490   75.2730 C.2   311  HIS311      0.2264
     15  O         -3.7220  142.9400   75.5400 O.2   311  HIS311     -0.2867
     16  CB        -3.8210  139.8710   75.3800 C.3   311  HIS311      0.0745
     17  CG        -5.2870  140.1310   75.5340 C.ar  311  HIS311      0.0817
     18  ND1       -5.8390  141.3900   75.4170 N.ar  311  HIS311     -0.2268
     19  CD2       -6.3160  139.2910   75.7970 C.ar  311  HIS311      0.1154
     20  CE1       -7.1450  141.3120   75.5980 C.ar  311  HIS311      0.1986
     21  NE2       -7.4600  140.0500   75.8310 N.ar  311  HIS311     -0.2212
     22  N         -6.9660  144.9930   72.6420 N.3   315  ASP315     -0.1225
     23  CA        -7.8950  143.8890   72.7130 C.3   315  ASP315      0.1805
     24  C         -8.1740  143.4020   71.2970 C.2   315  ASP315      0.2597
     25  O         -7.7890  144.0540   70.3280 O.2   315  ASP315     -0.2718
     26  CB        -9.1530  144.3480   73.4550 C.3   315  ASP315      0.1424
     27  CG        -8.8240  144.8950   74.8440 C.2   315  ASP315      0.3668
     28  OD1       -8.1770  144.1630   75.6300 O.co2 315  ASP315     -0.2456
     29  OD2       -9.1920  146.0530   75.1500 O.co2 315  ASP315     -0.2456
     30  N         -8.8370  142.2570   71.1890 N.am  316  ALA316     -0.1979
     31  CA        -9.1130  141.6090   69.9070 C.3   316  ALA316      0.1597
     32  C         -9.7730  142.3750   68.7640 C.2   316  ALA316      0.2287
     33  O         -9.5500  142.0440   67.5980 O.2   316  ALA316     -0.2864
     34  CB        -9.8970  140.3210   70.1600 C.3   316  ALA316      0.0319
     35  N        -16.3280  140.0880   78.5960 N.3   412  THR412     -0.1218
     36  CA       -15.7130  141.3560   78.2600 C.3   412  THR412      0.1862
     37  C        -16.7440  142.3990   77.8540 C.2   412  THR412      0.2287
     38  O        -17.6770  142.1110   77.1020 O.2   412  THR412     -0.2866
     39  CB       -14.7150  141.2040   77.0840 C.3   412  THR412      0.1770
     40  OG1      -13.6740  140.2870   77.4460 O.3   412  THR412     -0.2211
     41  CG2      -14.1030  142.5450   76.7330 C.3   412  THR412      0.0375
     42  N        -11.5960  147.7950   78.6440 N.3   422  THR422     -0.1218
     43  CA       -12.6330  146.8650   79.0640 C.3   422  THR422      0.1862
     44  C        -13.1180  146.9790   80.5050 C.2   422  THR422      0.2287
     45  O        -12.5170  147.6420   81.3470 O.2   422  THR422     -0.2866
     46  CB       -12.1660  145.4100   78.8750 C.3   422  THR422      0.1770
     47  OG1      -11.0910  145.1380   79.7880 O.3   422  THR422     -0.2211
     48  CG2      -11.6830  145.1840   77.4480 C.3   422  THR422      0.0375
     49  N        -14.4110  132.2570   80.9860 N.3   508  SER508     -0.1202
     50  CA       -13.8020  133.4960   80.5040 C.3   508  SER508      0.2020
     51  C        -14.3880  133.6450   79.1090 C.2   508  SER508      0.2619
     52  O        -14.1430  132.8160   78.2340 O.2   508  SER508     -0.2717
     53  CB       -12.2790  133.3580   80.4360 C.3   508  SER508      0.2103
     54  OG       -11.6870  134.5550   79.9560 O.3   508  SER508     -0.2182
     55  N        -15.1630  134.7030   78.8970 N.am  509  THR509     -0.1938
     56  CA       -15.8450  134.8610   77.6200 C.3   509  THR509      0.2028
     57  C        -15.8590  136.2550   77.0150 C.2   509  THR509      0.2643
     58  O        -15.5090  137.2440   77.6570 O.2   509  THR509     -0.2714
     59  CB       -17.3170  134.4360   77.7590 C.3   509  THR509      0.1808
     60  OG1      -18.0530  135.4970   78.3830 O.3   509  THR509     -0.2208
     61  CG2      -17.4350  133.1890   78.6350 C.3   509  THR509      0.0379
     62  N        -16.2950  136.3150   75.7640 N.am  510  SER510     -0.1935
     63  CA       -16.3960  137.5770   75.0610 C.3   510  SER510      0.2055
     64  C        -16.9250  137.4080   73.6550 C.2   510  SER510      0.2643
     65  O        -16.6920  136.3890   73.0020 O.2   510  SER510     -0.2714
     66  CB       -15.0350  138.2690   74.9850 C.3   510  SER510      0.2130
     67  OG       -15.1480  139.5140   74.3160 O.3   510  SER510     -0.2179
     68  N        -17.6560  138.4190   73.2080 N.am  511  LEU511     -0.1963
     69  CA       -18.1730  138.4520   71.8560 C.3   511  LEU511      0.1728
     70  C        -16.9800  139.0090   71.0940 C.2   511  LEU511      0.2616
     71  O        -16.2910  139.8950   71.6010 O.2   511  LEU511     -0.2715
     72  CB       -19.3460  139.4330   71.7560 C.3   511  LEU511      0.0311
     73  CG       -19.7260  139.8890   70.3420 C.3   511  LEU511      0.0022
     74  CD1      -20.1640  138.6940   69.5020 C.3   511  LEU511      0.0001
     75  CD2      -20.8390  140.9250   70.4270 C.3   511  LEU511      0.0001
     76  N        -16.7100  138.4900   69.9030 N.am  512  VAL512     -0.1977
     77  CA       -15.5920  139.0040   69.1230 C.3   512  VAL512      0.1596
     78  C        -16.0740  139.7870   67.8980 C.2   512  VAL512      0.2287
     79  O        -15.3610  139.9140   66.9030 O.2   512  VAL512     -0.2864
     80  CB       -14.6300  137.8640   68.6940 C.3   512  VAL512      0.0276
     81  CG1      -14.0190  137.2130   69.9330 C.3   512  VAL512      0.0022
     82  CG2      -15.3650  136.8340   67.8720 C.3   512  VAL512      0.0022
     83  N        -12.0180  134.7490   67.4850 N.3   519  GLY519     -0.1210
     84  CA       -10.8090  134.7880   68.2890 C.3   519  GLY519      0.1956
     85  C        -10.9460  133.8630   69.4820 C.2   519  GLY519      0.2612
     86  O        -12.0420  133.3860   69.7830 O.2   519  GLY519     -0.2717
     87  N         -9.8420  133.6060   70.1740 N.am  520  VAL520     -0.1965
     88  CA        -9.8880  132.7230   71.3290 C.3   520  VAL520      0.1727
     89  C         -8.6090  132.8350   72.1500 C.2   520  VAL520      0.2616
     90  O         -7.5730  133.2630   71.6440 O.2   520  VAL520     -0.2715
     91  CB       -10.0770  131.2390   70.8790 C.3   520  VAL520      0.0290
     92  CG1       -8.7750  130.6940   70.3120 C.3   520  VAL520      0.0023
     93  CG2      -10.5480  130.3790   72.0420 C.3   520  VAL520      0.0023
     94  N         -8.7090  132.4810   73.4270 N.am  521  VAL521     -0.1977
     95  CA        -7.5660  132.4560   74.3370 C.3   521  VAL521      0.1596
     96  C         -7.8120  131.2310   75.1990 C.2   521  VAL521      0.2287
     97  O         -8.9070  130.6670   75.1660 O.2   521  VAL521     -0.2864
     98  CB        -7.4800  133.7020   75.2650 C.3   521  VAL521      0.0276
     99  CG1       -7.2130  134.9460   74.4490 C.3   521  VAL521      0.0022
    100  CG2       -8.7540  133.8460   76.0800 C.3   521  VAL521      0.0022
    101  N        -15.6910  131.9340   73.4190 N.3   531  PHE531     -0.1241
    102  CA       -15.7950  133.1280   72.6000 C.3   531  PHE531      0.1605
    103  C        -16.6520  132.8570   71.3790 C.2   531  PHE531      0.2264
    104  O        -16.8300  131.7060   70.9720 O.2   531  PHE531     -0.2867
    105  CB       -14.3840  133.5740   72.2330 C.3   531  PHE531      0.0534
    106  CG       -13.4730  133.6270   73.4240 C.ar  531  PHE531     -0.0203
    107  CD1      -13.5120  134.7110   74.2950 C.ar  531  PHE531     -0.0042
    108  CD2      -12.6660  132.5360   73.7470 C.ar  531  PHE531     -0.0042
    109  CE1      -12.7670  134.7060   75.4780 C.ar  531  PHE531     -0.0003
    110  CE2      -11.9190  132.5240   74.9260 C.ar  531  PHE531     -0.0003
    111  CZ       -11.9720  133.6080   75.7910 C.ar  531  PHE531     -0.0000
@<TRIPOS>BOND
     1    79    78    2
     2    83    84    1
     3    33    32    2
     4    82    80    1
     5    78    77    1
     6    84    85    1
     7    80    77    1
     8    80    81    1
     9    32    31    1
    10    77    76    1
    11     9     7   ar
    12     9    11   ar
    13    85    86    2
    14    85    87   am
    15    74    73    1
    16     4     3    2
    17     7     6   ar
    18    76    70   am
    19    31    34    1
    20    31    30    1
    21    11    10   ar
    22     3     2    1
    23    87    88    1
    24    92    91    1
    25    25    24    2
    26    73    75    1
    27    73    72    1
    28    91    88    1
    29    91    93    1
    30   104   103    2
    31    70    71    2
    32    70    69    1
    33     6     5    1
    34     6     8   ar
    35    30    24   am
    36    24    23    1
    37    88    89    1
    38   103   102    1
    39    10     8   ar
    40     2     5    1
    41     2     1    1
    42    90    89    2
    43    72    69    1
    44    69    68    1
    45    89    94   am
    46   105   102    1
    47   105   106    1
    48   102   101    1
    49    22    23    1
    50    23    26    1
    51    65    64    2
    52    68    64   am
    53   106   108   ar
    54   106   107   ar
    55    94    95    1
    56    26    27    1
    57    64    63    1
    58   108   110   ar
    59    12    13    1
    60   107   109   ar
    61    67    66    1
    62    95    96    1
    63    95    98    1
    64    99    98    1
    65    13    14    1
    66    13    16    1
    67    27    29   ar
    68    27    28   ar
    69   110   111   ar
    70    66    63    1
    71    63    62    1
    72    97    96    2
    73    98   100    1
    74    14    15    2
    75    16    17    1
    76    18    17   ar
    77    18    20   ar
    78   109   111   ar
    79    17    19   ar
    80    20    21   ar
    81    62    57   am
    82    19    21   ar
    83    41    39    1
    84    57    56    1
    85    57    58    2
    86    39    40    1
    87    39    36    1
    88    38    37    2
    89    48    46    1
    90    56    59    1
    91    56    55    1
    92    59    60    1
    93    59    61    1
    94    37    36    1
    95    52    51    2
    96    36    35    1
    97    42    43    1
    98    46    43    1
    99    46    47    1
   100    55    51   am
   101    43    44    1
   102    51    50    1
   103    54    53    1
   104    53    50    1
   105    50    49    1
   106    44    45    2
