@<TRIPOS>MOLECULE
tmp/1xl8A00.pdb
 112 108 0 0 0
SMALL
GASTEIGER

@<TRIPOS>ATOM
      1  N         -4.1560  150.3480   84.5570 N.3    75  TRP75      -0.1241
      2  CA        -4.6450  149.1780   83.8280 C.3    75  TRP75       0.1605
      3  C         -3.5370  148.5200   83.0000 C.2    75  TRP75       0.2264
      4  O         -3.3740  147.2970   83.0070 O.2    75  TRP75      -0.2867
      5  CB        -5.8010  149.5790   82.9080 C.3    75  TRP75       0.0550
      6  CG        -6.4500  148.4070   82.2330 C.ar   75  TRP75       0.0003
      7  CD1       -6.4860  148.1430   80.8860 C.ar   75  TRP75       0.0946
      8  CD2       -7.1690  147.3450   82.8710 C.ar   75  TRP75       0.0152
      9  NE1       -7.1910  146.9800   80.6510 N.ar   75  TRP75      -0.2442
     10  CE2       -7.6200  146.4710   81.8510 C.ar   75  TRP75       0.0810
     11  CE3       -7.4810  147.0460   84.2080 C.ar   75  TRP75       0.0012
     12  CZ2       -8.3650  145.3200   82.1250 C.ar   75  TRP75       0.0191
     13  CZ3       -8.2240  145.9010   84.4830 C.ar   75  TRP75       0.0001
     14  CH2       -8.6590  145.0490   83.4430 C.ar   75  TRP75       0.0015
     15  N         -1.3090  144.0250   82.4240 N.3    80  TYR80      -0.1241
     16  CA        -0.3800  143.4820   81.4370 C.3    80  TYR80       0.1605
     17  C          1.1220  143.5880   81.7100 C.2    80  TYR80       0.2264
     18  O          1.7970  142.5760   81.8570 O.2    80  TYR80      -0.2867
     19  CB        -0.6790  144.1190   80.0670 C.3    80  TYR80       0.0534
     20  CG        -2.1190  143.9560   79.6210 C.ar   80  TYR80      -0.0201
     21  CD1       -2.6280  142.7030   79.2770 C.ar   80  TYR80      -0.0009
     22  CD2       -2.9900  145.0520   79.5820 C.ar   80  TYR80      -0.0009
     23  CE1       -3.9730  142.5450   78.9030 C.ar   80  TYR80       0.0417
     24  CE2       -4.3340  144.9040   79.2140 C.ar   80  TYR80       0.0417
     25  CZ        -4.8140  143.6500   78.8780 C.ar   80  TYR80       0.1957
     26  OH        -6.1360  143.4980   78.5330 O.3    80  TYR80      -0.2866
     27  N         -1.6700  141.8170   73.7960 N.3   311  HIS311     -0.1241
     28  CA        -2.8590  142.4280   74.3770 C.3   311  HIS311      0.1621
     29  C         -2.5700  143.6740   75.2140 C.2   311  HIS311      0.2264
     30  O         -3.4850  144.4180   75.5570 O.2   311  HIS311     -0.2867
     31  CB        -3.5810  141.4070   75.2540 C.3   311  HIS311      0.0745
     32  CG        -5.0580  141.6220   75.3350 C.ar  311  HIS311      0.0817
     33  ND1       -5.6330  142.8730   75.2610 N.ar  311  HIS311     -0.2268
     34  CD2       -6.0800  140.7450   75.4820 C.ar  311  HIS311      0.1154
     35  CE1       -6.9450  142.7580   75.3550 C.ar  311  HIS311      0.1986
     36  NE2       -7.2420  141.4770   75.4890 N.ar  311  HIS311     -0.2212
     37  N         -6.8350  146.6240   72.6000 N.3   315  ASP315     -0.1225
     38  CA        -7.7770  145.5170   72.6380 C.3   315  ASP315      0.1805
     39  C         -8.0590  144.9540   71.2460 C.2   315  ASP315      0.2597
     40  O         -7.6760  145.5500   70.2450 O.2   315  ASP315     -0.2718
     41  CB        -9.0440  145.9810   73.3580 C.3   315  ASP315      0.1424
     42  CG        -8.7420  146.4870   74.7700 C.2   315  ASP315      0.3668
     43  OD1       -8.0600  145.7570   75.5280 O.co2 315  ASP315     -0.2456
     44  OD2       -9.1700  147.6060   75.1220 O.co2 315  ASP315     -0.2456
     45  N         -8.7230  143.8050   71.1870 N.am  316  ALA316     -0.1979
     46  CA        -8.9910  143.1270   69.9170 C.3   316  ALA316      0.1597
     47  C         -9.7360  143.8560   68.7920 C.2   316  ALA316      0.2287
     48  O         -9.5800  143.4930   67.6260 O.2   316  ALA316     -0.2864
     49  CB        -9.6710  141.7870   70.1940 C.3   316  ALA316      0.0319
     50  N        -16.8190  136.7370   83.2270 N.3   410  TYR410     -0.1241
     51  CA       -16.2660  138.0340   82.9010 C.3   410  TYR410      0.1605
     52  C        -16.6250  138.2760   81.4490 C.2   410  TYR410      0.2264
     53  O        -16.3100  137.4510   80.5990 O.2   410  TYR410     -0.2867
     54  CB       -14.7360  138.0170   83.0270 C.3   410  TYR410      0.0534
     55  CG       -14.0510  139.3150   82.6320 C.ar  410  TYR410     -0.0201
     56  CD1      -14.1820  139.8400   81.3430 C.ar  410  TYR410     -0.0009
     57  CD2      -13.2720  140.0220   83.5510 C.ar  410  TYR410     -0.0009
     58  CE1      -13.5580  141.0360   80.9780 C.ar  410  TYR410      0.0417
     59  CE2      -12.6420  141.2200   83.1940 C.ar  410  TYR410      0.0417
     60  CZ       -12.7950  141.7200   81.9080 C.ar  410  TYR410      0.1957
     61  OH       -12.2180  142.9200   81.5590 O.3   410  TYR410     -0.2866
     62  N        -16.2770  141.2790   78.5170 N.3   412  THR412     -0.1218
     63  CA       -15.6950  142.5730   78.2280 C.3   412  THR412      0.1862
     64  C        -16.7410  143.5930   77.8110 C.2   412  THR412      0.2287
     65  O        -17.6900  143.2710   77.1000 O.2   412  THR412     -0.2866
     66  CB       -14.6510  142.4830   77.1000 C.3   412  THR412      0.1770
     67  OG1      -13.5890  141.5980   77.4960 O.3   412  THR412     -0.2211
     68  CG2      -14.0900  143.8720   76.7930 C.3   412  THR412      0.0375
     69  N        -11.6620  149.0900   78.4910 N.3   422  THR422     -0.1218
     70  CA       -12.7030  148.1510   78.8940 C.3   422  THR422      0.1862
     71  C        -13.1880  148.2100   80.3460 C.2   422  THR422      0.2287
     72  O        -12.5760  148.8330   81.2210 O.2   422  THR422     -0.2866
     73  CB       -12.2520  146.7010   78.6460 C.3   422  THR422      0.1770
     74  OG1      -11.1400  146.3990   79.5030 O.3   422  THR422     -0.2211
     75  CG2      -11.8430  146.5070   77.1840 C.3   422  THR422      0.0375
     76  N        -14.0780  133.3640   80.9350 N.3   508  SER508     -0.1202
     77  CA       -13.4400  134.5740   80.4330 C.3   508  SER508      0.2020
     78  C        -14.0230  134.7570   79.0380 C.2   508  SER508      0.2619
     79  O        -13.7820  133.9410   78.1450 O.2   508  SER508     -0.2717
     80  CB       -11.9260  134.3720   80.3640 C.3   508  SER508      0.2103
     81  OG       -11.2740  135.5610   79.9730 O.3   508  SER508     -0.2182
     82  N        -14.7830  135.8270   78.8400 N.am  509  THR509     -0.1938
     83  CA       -15.4380  136.0080   77.5530 C.3   509  THR509      0.2028
     84  C        -15.4480  137.4150   76.9790 C.2   509  THR509      0.2642
     85  O        -15.0650  138.3850   77.6340 O.2   509  THR509     -0.2714
     86  CB       -16.9080  135.5510   77.6400 C.3   509  THR509      0.1808
     87  OG1      -17.6770  136.5620   78.3060 O.3   509  THR509     -0.2208
     88  CG2      -17.0210  134.2540   78.4380 C.3   509  THR509      0.0379
     89  N        -15.9120  137.5000   75.7380 N.am  510  SER510     -0.1949
     90  CA       -16.0240  138.7620   75.0270 C.3   510  SER510      0.1924
     91  C        -16.5540  138.5790   73.6120 C.2   510  SER510      0.2314
     92  O        -16.2810  137.5740   72.9540 O.2   510  SER510     -0.2863
     93  CB       -14.6680  139.4660   74.9450 C.3   510  SER510      0.2116
     94  OG       -14.7990  140.7130   74.2800 O.3   510  SER510     -0.2180
     95  N         -8.2980  133.5420   73.2720 N.3   521  VAL521     -0.1245
     96  CA        -7.1700  133.5870   74.2030 C.3   521  VAL521      0.1561
     97  C         -7.3760  132.3900   75.1340 C.2   521  VAL521      0.2260
     98  O         -8.4230  131.7390   75.0830 O.2   521  VAL521     -0.2867
     99  CB        -7.1260  134.8830   75.0660 C.3   521  VAL521      0.0252
    100  CG1       -6.7970  136.0820   74.2070 C.3   521  VAL521      0.0019
    101  CG2       -8.4440  135.0820   75.7750 C.3   521  VAL521      0.0019
    102  N        -15.1770  133.0690   73.3630 N.3   531  PHE531     -0.1241
    103  CA       -15.3050  134.2590   72.5430 C.3   531  PHE531      0.1605
    104  C        -16.1600  133.9460   71.3350 C.2   531  PHE531      0.2264
    105  O        -16.3330  132.7860   70.9710 O.2   531  PHE531     -0.2867
    106  CB       -13.9070  134.7420   72.1680 C.3   531  PHE531      0.0534
    107  CG       -13.0520  135.0090   73.3740 C.ar  531  PHE531     -0.0203
    108  CD1      -13.0800  136.2530   73.9990 C.ar  531  PHE531     -0.0042
    109  CD2      -12.3250  133.9750   73.9670 C.ar  531  PHE531     -0.0042
    110  CE1      -12.4100  136.4660   75.1990 C.ar  531  PHE531     -0.0003
    111  CE2      -11.6490  134.1780   75.1680 C.ar  531  PHE531     -0.0003
    112  CZ       -11.6950  135.4280   75.7860 C.ar  531  PHE531     -0.0000
@<TRIPOS>BOND
     1    48    47    2
     2    47    46    1
     3    46    49    1
     4    46    45    1
     5    40    39    2
     6   105   104    2
     7    45    39   am
     8    39    38    1
     9   104   103    1
    10   106   103    1
    11   106   107    1
    12   103   102    1
    13    37    38    1
    14    38    41    1
    15    92    91    2
    16    95    96    1
    17    41    42    1
    18   107   109   ar
    19   107   108   ar
    20    91    90    1
    21    27    28    1
    22   109   111   ar
    23   108   110   ar
    24    96    99    1
    25    96    97    1
    26   100    99    1
    27    94    93    1
    28    28    29    1
    29    28    31    1
    30    42    44   ar
    31    42    43   ar
    32    93    90    1
    33    90    89    1
    34    99   101    1
    35    98    97    2
    36   111   112   ar
    37   110   112   ar
    38    29    30    2
    39    31    32    1
    40    33    32   ar
    41    33    35   ar
    42    32    34   ar
    43    35    36   ar
    44    34    36   ar
    45    89    84   am
    46    68    66    1
    47    84    83    1
    48    84    85    2
    49    65    64    2
    50    66    67    1
    51    66    63    1
    52    75    73    1
    53    83    86    1
    54    83    82    1
    55    86    87    1
    56    86    88    1
    57    64    63    1
    58    79    78    2
    59    63    62    1
    60    69    70    1
    61    26    25    1
    62    73    70    1
    63    73    74    1
    64    82    78   am
    65    25    23   ar
    66    25    24   ar
    67    70    71    1
    68    23    21   ar
    69    78    77    1
    70    24    22   ar
    71    21    20   ar
    72    22    20   ar
    73    20    19    1
    74    81    80    1
    75    19    16    1
    76    71    72    2
    77    80    77    1
    78    77    76    1
    79    53    52    2
    80     9     7   ar
    81     9    10   ar
    82     7     6   ar
    83    58    56   ar
    84    58    60   ar
    85    56    55   ar
    86    16    17    1
    87    16    15    1
    88    52    51    1
    89    61    60    1
    90    17    18    2
    91    10    12   ar
    92    10     8   ar
    93    60    59   ar
    94    12    14   ar
    95     6     8   ar
    96     6     5    1
    97    55    54    1
    98    55    57   ar
    99     8    11   ar
   100    51    54    1
   101    51    50    1
   102     5     2    1
   103     3     4    2
   104     3     2    1
   105    59    57   ar
   106    14    13   ar
   107     2     1    1
   108    11    13   ar
