@<TRIPOS>MOLECULE
tmp/1xl8B00.pdb
 175 169 0 0 0
SMALL
GASTEIGER

@<TRIPOS>ATOM
      1  N         36.0680   40.5140  108.2490 N.3    75  TRP75      -0.1241
      2  CA        37.5190   40.6930  108.2400 C.3    75  TRP75       0.1605
      3  C         38.0240   41.1440  109.6150 C.2    75  TRP75       0.2264
      4  O         38.9090   40.5180  110.1910 O.2    75  TRP75      -0.2867
      5  CB        37.9220   41.7140  107.1640 C.3    75  TRP75       0.0550
      6  CG        39.4240   41.8490  106.9970 C.ar   75  TRP75       0.0003
      7  CD1       40.1770   42.9720  107.2090 C.ar   75  TRP75       0.0946
      8  CD2       40.3430   40.8210  106.5930 C.ar   75  TRP75       0.0152
      9  NE1       41.5060   42.7060  106.9590 N.ar   75  TRP75      -0.2442
     10  CE2       41.6360   41.3940  106.5830 C.ar   75  TRP75       0.0810
     11  CE3       40.1980   39.4720  106.2400 C.ar   75  TRP75       0.0012
     12  CZ2       42.7800   40.6650  106.2320 C.ar   75  TRP75       0.0191
     13  CZ3       41.3400   38.7410  105.8900 C.ar   75  TRP75       0.0001
     14  CH2       42.6120   39.3420  105.8900 C.ar   75  TRP75       0.0015
     15  N         41.3620   39.6090  113.0610 N.3    80  TYR80      -0.1241
     16  CA        41.9420   40.2560  114.2450 C.3    80  TYR80       0.1605
     17  C         41.2700   40.0530  115.6010 C.2    80  TYR80       0.2264
     18  O         41.8610   39.4820  116.5180 O.2    80  TYR80      -0.2867
     19  CB        42.0420   41.7650  114.0110 C.3    80  TYR80       0.0534
     20  CG        42.8170   42.1500  112.7720 C.ar   80  TYR80      -0.0201
     21  CD1       44.2110   42.0260  112.7250 C.ar   80  TYR80      -0.0009
     22  CD2       42.1570   42.6260  111.6380 C.ar   80  TYR80      -0.0009
     23  CE1       44.9230   42.3670  111.5810 C.ar   80  TYR80       0.0417
     24  CE2       42.8650   42.9700  110.4860 C.ar   80  TYR80       0.0417
     25  CZ        44.2420   42.8390  110.4670 C.ar   80  TYR80       0.1957
     26  OH        44.9340   43.2010  109.3390 O.3    80  TYR80      -0.2866
     27  N         51.7550   46.1540  114.1540 N.3    93  PHE93      -0.1227
     28  CA        52.8520   46.4620  113.2650 C.3    93  PHE93       0.1736
     29  C         53.6140   47.6180  113.9180 C.2    93  PHE93       0.2595
     30  O         53.0470   48.3830  114.7220 O.2    93  PHE93      -0.2718
     31  CB        52.3570   46.8090  111.8420 C.3    93  PHE93       0.0547
     32  CG        51.3880   47.9770  111.7620 C.ar   93  PHE93      -0.0202
     33  CD1       51.8480   49.2890  111.7810 C.ar   93  PHE93      -0.0042
     34  CD2       50.0190   47.7550  111.6110 C.ar   93  PHE93      -0.0042
     35  CE1       50.9640   50.3680  111.6460 C.ar   93  PHE93      -0.0003
     36  CE2       49.1250   48.8280  111.4770 C.ar   93  PHE93      -0.0003
     37  CZ        49.5990   50.1320  111.4950 C.ar   93  PHE93      -0.0000
     38  N         54.9070   47.7100  113.6280 N.am   94  VAL94      -0.1966
     39  CA        55.7260   48.7760  114.1810 C.3    94  VAL94       0.1727
     40  C         56.4770   49.4670  113.0710 C.2    94  VAL94       0.2616
     41  O         56.6080   48.9340  111.9620 O.2    94  VAL94      -0.2715
     42  CB        56.7690   48.2620  115.1980 C.3    94  VAL94       0.0290
     43  CG1       56.0660   47.5030  116.3280 C.3    94  VAL94       0.0023
     44  CG2       57.8080   47.3880  114.4900 C.3    94  VAL94       0.0023
     45  N         56.9680   50.6600  113.3810 N.am   95  GLY95      -0.1955
     46  CA        57.7240   51.4220  112.4140 C.3    95  GLY95       0.1869
     47  C         58.5970   52.4610  113.0900 C.2    95  GLY95       0.2309
     48  O         58.1440   53.1680  113.9890 O.2    95  GLY95      -0.2863
     49  N         46.8030   46.3800  114.7790 N.3   311  HIS311     -0.1241
     50  CA        46.4870   46.1870  113.3750 C.3   311  HIS311      0.1621
     51  C         45.0000   45.9860  113.1320 C.2   311  HIS311      0.2264
     52  O         44.5400   46.0650  112.0000 O.2   311  HIS311     -0.2867
     53  CB        47.2290   44.9610  112.8290 C.3   311  HIS311      0.0745
     54  CG        47.4300   44.9910  111.3470 C.ar  311  HIS311      0.0817
     55  ND1       46.5950   45.6880  110.4970 N.ar  311  HIS311     -0.2268
     56  CD2       48.3830   44.4280  110.5640 C.ar  311  HIS311      0.1154
     57  CE1       47.0290   45.5590  109.2540 C.ar  311  HIS311      0.1986
     58  NE2       48.1120   44.8000  109.2670 N.ar  311  HIS311     -0.2212
     59  N         44.9810   49.6860  108.5620 N.3   315  ASP315     -0.1225
     60  CA        46.1980   49.1830  107.9670 C.3   315  ASP315      0.1805
     61  C         47.3260   50.2040  108.0780 C.2   315  ASP315      0.2597
     62  O         47.1040   51.3530  108.4610 O.2   315  ASP315     -0.2718
     63  CB        45.9150   48.7730  106.5190 C.3   315  ASP315      0.1424
     64  CG        44.7620   47.7540  106.4260 C.2   315  ASP315      0.3668
     65  OD1       44.7410   46.7750  107.2170 O.co2 315  ASP315     -0.2456
     66  OD2       43.8760   47.9360  105.5700 O.co2 315  ASP315     -0.2456
     67  N         48.5390   49.7650  107.7580 N.am  316  ALA316     -0.1979
     68  CA        49.7370   50.5890  107.8710 C.3   316  ALA316      0.1597
     69  C         49.7620   51.9630  107.2090 C.2   316  ALA316      0.2287
     70  O         50.4060   52.8780  107.7240 O.2   316  ALA316     -0.2864
     71  CB        50.9500   49.7820  107.3990 C.3   316  ALA316      0.0319
     72  N         51.8070   55.4460  108.2340 N.3   318  VAL318     -0.1245
     73  CA        52.8580   55.8920  107.3350 C.3   318  VAL318      0.1561
     74  C         52.6430   57.3580  106.9710 C.2   318  VAL318      0.2260
     75  O         53.6020   58.1290  106.9010 O.2   318  VAL318     -0.2867
     76  CB        52.8930   55.0370  106.0500 C.3   318  VAL318      0.0252
     77  CG1       53.6880   55.7400  104.9590 C.3   318  VAL318      0.0019
     78  CG2       53.5250   53.6900  106.3640 C.3   318  VAL318      0.0019
     79  N         52.2840   36.0610  100.3500 N.3   421  TYR421     -0.1241
     80  CA        51.1530   36.9490  100.5520 C.3   421  TYR421      0.1605
     81  C         51.6050   38.3880  100.3430 C.2   421  TYR421      0.2264
     82  O         52.5130   38.8540  101.0240 O.2   421  TYR421     -0.2867
     83  CB        50.6290   36.8010  101.9920 C.3   421  TYR421      0.0534
     84  CG        49.4580   37.7000  102.3690 C.ar  421  TYR421     -0.0201
     85  CD1       49.5260   39.0840  102.2090 C.ar  421  TYR421     -0.0009
     86  CD2       48.2820   37.1600  102.9060 C.ar  421  TYR421     -0.0009
     87  CE1       48.4580   39.9070  102.5670 C.ar  421  TYR421      0.0417
     88  CE2       47.2010   37.9840  103.2680 C.ar  421  TYR421      0.0417
     89  CZ        47.3000   39.3530  103.0870 C.ar  421  TYR421      0.1957
     90  OH        46.2310   40.1750  103.3680 O.3   421  TYR421     -0.2866
     91  N         50.1000   42.3170  100.2250 N.3   423  THR423     -0.1218
     92  CA        48.9640   43.1690  100.4660 C.3   423  THR423      0.1862
     93  C         48.6250   44.0160   99.2400 C.2   423  THR423      0.2287
     94  O         49.4990   44.6310   98.6330 O.2   423  THR423     -0.2866
     95  CB        49.2260   44.1500  101.6410 C.3   423  THR423      0.1770
     96  OG1       49.4110   43.4180  102.8570 O.3   423  THR423     -0.2211
     97  CG2       48.0470   45.1190  101.8010 C.3   423  THR423      0.0375
     98  N         41.9040   45.4750  102.3510 N.3   433  THR433     -0.1218
     99  CA        42.9130   44.7730  101.5690 C.3   433  THR433      0.1862
    100  C         42.4500   43.4820  100.9140 C.2   433  THR433      0.2287
    101  O         41.4000   42.9230  101.2490 O.2   433  THR433     -0.2866
    102  CB        44.1150   44.3840  102.4480 C.3   433  THR433      0.1770
    103  OG1       43.6950   43.3730  103.3730 O.3   433  THR433     -0.2211
    104  CG2       44.6450   45.5860  103.2420 C.3   433  THR433      0.0375
    105  N         55.1340   36.6260  104.1290 N.3   519  SER519     -0.1202
    106  CA        54.0730   37.5500  104.4980 C.3   519  SER519      0.2020
    107  C         54.6430   38.9170  104.1640 C.2   519  SER519      0.2619
    108  O         55.5520   39.3910  104.8360 O.2   519  SER519     -0.2717
    109  CB        53.7760   37.4180  105.9980 C.3   519  SER519      0.2103
    110  OG        52.7030   38.2540  106.3810 O.3   519  SER519     -0.2182
    111  N         54.0830   39.5660  103.1450 N.am  520  THR520     -0.1938
    112  CA        54.6520   40.8190  102.6800 C.3   520  THR520      0.2028
    113  C         53.7200   41.9470  102.2860 C.2   520  THR520      0.2642
    114  O         52.5270   41.7590  102.0450 O.2   520  THR520     -0.2714
    115  CB        55.5120   40.5640  101.4290 C.3   520  THR520      0.1808
    116  OG1       54.6460   40.4670  100.2900 O.3   520  THR520     -0.2208
    117  CG2       56.2890   39.2470  101.5600 C.3   520  THR520      0.0379
    118  N         54.3170   43.1250  102.1680 N.am  521  SER521     -0.1949
    119  CA        53.5930   44.3050  101.7600 C.3   521  SER521      0.1924
    120  C         54.5130   45.4790  101.4480 C.2   521  SER521      0.2314
    121  O         55.5750   45.6280  102.0480 O.2   521  SER521     -0.2863
    122  CB        52.6150   44.7280  102.8510 C.3   521  SER521      0.2116
    123  OG        51.9800   45.9300  102.4760 O.3   521  SER521     -0.2180
    124  N         55.3190   49.1880  101.8460 N.3   523  VAL523     -0.1245
    125  CA        54.9510   50.1350  102.8870 C.3   523  VAL523      0.1561
    126  C         54.8080   51.5380  102.3080 C.2   523  VAL523      0.2260
    127  O         54.4220   52.4720  103.0080 O.2   523  VAL523     -0.2867
    128  CB        55.9940   50.1300  104.0300 C.3   523  VAL523      0.0252
    129  CG1       55.5780   51.0850  105.1330 C.3   523  VAL523      0.0019
    130  CG2       56.1310   48.7280  104.5830 C.3   523  VAL523      0.0019
    131  N         59.1150   55.7920  104.8920 N.3   528  VAL528     -0.1231
    132  CA        58.7630   55.1460  106.1500 C.3   528  VAL528      0.1692
    133  C         58.8310   53.6390  105.9810 C.2   528  VAL528      0.2592
    134  O         58.3710   53.0990  104.9720 O.2   528  VAL528     -0.2718
    135  CB        57.3490   55.5280  106.6070 C.3   528  VAL528      0.0266
    136  CG1       57.0010   54.8030  107.8930 C.3   528  VAL528      0.0020
    137  CG2       57.2640   57.0260  106.8110 C.3   528  VAL528      0.0020
    138  N         59.4090   52.9620  106.9700 N.am  529  GLN529     -0.1966
    139  CA        59.5350   51.5130  106.9380 C.3   529  GLN529      0.1733
    140  C         58.9390   50.8740  108.1880 C.2   529  GLN529      0.2617
    141  O         59.0310   51.4360  109.2810 O.2   529  GLN529     -0.2715
    142  CB        61.0090   51.1090  106.8360 C.3   529  GLN529      0.0408
    143  CG        61.2360   49.6080  106.6530 C.3   529  GLN529      0.0908
    144  CD        60.5560   49.0670  105.4060 C.2   529  GLN529      0.2608
    145  OE1       60.6930   49.6260  104.3150 O.2   529  GLN529     -0.2717
    146  NE2       59.8260   47.9720  105.5600 N.am  529  GLN529     -0.0878
    147  N         58.3360   49.6970  108.0210 N.am  530  GLY530     -0.1940
    148  CA        57.7660   48.9880  109.1550 C.3   530  GLY530      0.2014
    149  C         57.8650   47.4790  108.9910 C.2   530  GLY530      0.2639
    150  O         58.3750   46.9920  107.9760 O.2   530  GLY530     -0.2714
    151  N         57.4070   46.7420  110.0020 N.am  531  VAL531     -0.1963
    152  CA        57.3830   45.2820  109.9620 C.3   531  VAL531      0.1727
    153  C         56.4180   44.7060  110.9770 C.2   531  VAL531      0.2616
    154  O         55.9520   45.3980  111.8820 O.2   531  VAL531     -0.2715
    155  CB        58.7480   44.5900  110.2920 C.3   531  VAL531      0.0290
    156  CG1       59.7470   44.8890  109.2510 C.3   531  VAL531      0.0023
    157  CG2       59.2360   44.9950  111.6640 C.3   531  VAL531      0.0023
    158  N         56.1470   43.4190  110.7940 N.am  532  VAL532     -0.1977
    159  CA        55.3060   42.6180  111.6690 C.3   532  VAL532      0.1596
    160  C         56.0390   41.2760  111.7110 C.2   532  VAL532      0.2287
    161  O         56.9400   41.0390  110.9000 O.2   532  VAL532     -0.2864
    162  CB        53.8830   42.4190  111.0920 C.3   532  VAL532      0.0276
    163  CG1       53.2020   43.7760  110.9300 C.3   532  VAL532      0.0022
    164  CG2       53.9480   41.6810  109.7590 C.3   532  VAL532      0.0022
    165  N         58.9060   43.2730  104.4230 N.3   542  PHE542     -0.1241
    166  CA        58.3250   44.5510  104.0800 C.3   542  PHE542      0.1605
    167  C         59.3830   45.5020  103.5490 C.2   542  PHE542      0.2264
    168  O         60.5670   45.3610  103.8590 O.2   542  PHE542     -0.2867
    169  CB        57.6360   45.0860  105.3270 C.3   542  PHE542      0.0534
    170  CG        56.6240   44.1250  105.8770 C.ar  542  PHE542     -0.0203
    171  CD1       55.3120   44.1550  105.4310 C.ar  542  PHE542     -0.0042
    172  CD2       57.0150   43.1090  106.7480 C.ar  542  PHE542     -0.0042
    173  CE1       54.3980   43.1870  105.8330 C.ar  542  PHE542     -0.0003
    174  CE2       56.1180   42.1370  107.1550 C.ar  542  PHE542     -0.0003
    175  CZ        54.8010   42.1720  106.6950 C.ar  542  PHE542     -0.0000
@<TRIPOS>BOND
     1    94    93    2
     2    93    92    1
     3    91    92    1
     4   116   115    1
     5    81    80    1
     6    81    82    2
     7    79    80    1
     8    92    95    1
     9    80    83    1
    10   100   101    2
    11   100    99    1
    12   115   117    1
    13   115   112    1
    14   120   119    1
    15   120   121    2
    16    99    98    1
    17    99   102    1
    18    95    97    1
    19    95    96    1
    20   119   118    1
    21   119   122    1
    22   124   125    1
    23    83    84    1
    24   114   113    2
    25   118   113   am
    26    85    84   ar
    27    85    87   ar
    28   113   112    1
    29   126   125    1
    30   126   127    2
    31    84    86   ar
    32   102   104    1
    33   102   103    1
    34   123   122    1
    35    87    89   ar
    36   112   111    1
    37   125   128    1
    38    86    88   ar
    39    89    88   ar
    40    89    90    1
    41   111   107   am
    42   167   168    2
    43   167   166    1
    44   128   130    1
    45   128   129    1
    46   166   165    1
    47   166   169    1
    48   105   106    1
    49   107   106    1
    50   107   108    2
    51   145   144    2
    52   106   109    1
    53   131   132    1
    54    77    76    1
    55   134   133    2
    56   169   170    1
    57   144   146   am
    58   144   143    1
    59   171   173   ar
    60   171   170   ar
    61    66    64   ar
    62   173   175   ar
    63   170   172   ar
    64    13    14   ar
    65    13    11   ar
    66    14    12   ar
    67   133   132    1
    68   133   138   am
    69   109   110    1
    70    76    78    1
    71    76    73    1
    72   132   135    1
    73    12    10   ar
    74    11     8   ar
    75    64    63    1
    76    64    65   ar
    77    63    60    1
    78    10     8   ar
    79    10     9   ar
    80     8     6   ar
    81   135   137    1
    82   135   136    1
    83   143   142    1
    84   175   174   ar
    85   172   174   ar
    86   142   139    1
    87    75    74    2
    88   139   138    1
    89   139   140    1
    90     9     7   ar
    91    74    73    1
    92     6     5    1
    93     6     7   ar
    94     5     2    1
    95    69    70    2
    96    69    68    1
    97    73    72    1
    98    71    68    1
    99    67    68    1
   100    67    61   am
   101    60    61    1
   102    60    59    1
   103   150   149    2
   104   147   140   am
   105   147   148    1
   106    61    62    2
   107   140   141    2
   108     2     1    1
   109     2     3    1
   110   149   148    1
   111   149   151   am
   112   156   155    1
   113    57    58   ar
   114    57    55   ar
   115    58    56   ar
   116    26    25    1
   117     3     4    2
   118   164   162    1
   119   152   151    1
   120   152   155    1
   121   152   153    1
   122   155   157    1
   123    25    24   ar
   124    25    23   ar
   125    24    22   ar
   126    55    54   ar
   127    56    54   ar
   128   158   153   am
   129   158   159    1
   130   161   160    2
   131   163   162    1
   132   153   154    2
   133   162   159    1
   134    54    53    1
   135    36    37   ar
   136    36    34   ar
   137    37    35   ar
   138    23    21   ar
   139    34    32   ar
   140    22    20   ar
   141    35    33   ar
   142   159   160    1
   143    32    33   ar
   144    32    31    1
   145    31    28    1
   146    41    40    2
   147    52    51    2
   148    46    47    1
   149    46    45    1
   150    21    20   ar
   151    20    19    1
   152    53    50    1
   153    15    16    1
   154    40    45   am
   155    40    39    1
   156    47    48    2
   157    51    50    1
   158    28    29    1
   159    28    27    1
   160    50    49    1
   161    38    29   am
   162    38    39    1
   163    29    30    2
   164    19    16    1
   165    39    42    1
   166    16    17    1
   167    44    42    1
   168    42    43    1
   169    17    18    2
