@<TRIPOS>MOLECULE
tmp/1xlfB00.pdb
 164 154 0 0 0
SMALL
GASTEIGER

@<TRIPOS>ATOM
      1  N         51.1880   35.1700    4.7980 N.3    14  TRP14      -0.1241
      2  CA        51.3440   36.3790    3.9850 C.3    14  TRP14       0.1605
      3  C         51.1630   37.6610    4.7840 C.2    14  TRP14       0.2264
      4  O         51.3890   38.7440    4.2450 O.2    14  TRP14      -0.2867
      5  CB        50.2940   36.3220    2.8670 C.3    14  TRP14       0.0550
      6  CG        48.8820   36.5730    3.2270 C.ar   14  TRP14       0.0003
      7  CD1       48.1340   37.7040    3.1790 C.ar   14  TRP14       0.0946
      8  CD2       47.9870   35.5260    3.7300 C.ar   14  TRP14       0.0152
      9  NE1       46.8450   37.4480    3.6270 N.ar   14  TRP14      -0.2442
     10  CE2       46.7330   36.1260    3.9450 C.ar   14  TRP14       0.0810
     11  CE3       48.1420   34.1680    3.9740 C.ar   14  TRP14       0.0012
     12  CZ2       45.6520   35.4340    4.3940 C.ar   14  TRP14       0.0191
     13  CZ3       47.0370   33.4510    4.4250 C.ar   14  TRP14       0.0001
     14  CH2       45.8350   34.0880    4.6400 C.ar   14  TRP14       0.0015
     15  N         48.0910   30.5370    1.7360 N.3    52  HIS52      -0.1241
     16  CA        47.6830   30.4510    0.3250 C.3    52  HIS52       0.1621
     17  C         48.7440   29.4310   -0.2170 C.2    52  HIS52       0.2264
     18  O         49.9730   29.5160    0.1140 O.2    52  HIS52      -0.2867
     19  CB        47.7030   31.6540   -0.5840 C.3    52  HIS52       0.0745
     20  CG        47.0250   32.9050   -0.2180 C.ar   52  HIS52       0.0817
     21  ND1       47.4520   33.9120    0.6650 N.ar   52  HIS52      -0.2268
     22  CD2       45.8710   33.4040   -0.7240 C.ar   52  HIS52       0.1154
     23  CE1       46.5720   34.9150    0.6680 C.ar   52  HIS52       0.1986
     24  NE2       45.5980   34.6100   -0.1690 N.ar   52  HIS52      -0.2212
     25  N         42.8440   26.9950    8.4440 N.3    86  MET86      -0.1245
     26  CA        42.2130   27.3970    7.1440 C.3    86  MET86       0.1570
     27  C         43.2780   27.3970    6.0770 C.2    86  MET86       0.2261
     28  O         44.4840   27.6400    6.3130 O.2    86  MET86      -0.2867
     29  CB        41.4720   28.7180    7.3660 C.3    86  MET86       0.0387
     30  CG        41.0540   29.4390    6.1700 C.3    86  MET86       0.0595
     31  SD        42.1680   30.3350    5.0880 S.3    86  MET86      -0.1393
     32  CE        42.4290   31.9210    5.8950 C.3    86  MET86       0.0692
     33  N         43.8640   28.5420    1.7600 N.3    88  THR88      -0.1203
     34  CA        43.2500   29.2470    0.6320 C.3    88  THR88       0.1994
     35  C         44.1500   29.1250   -0.5940 C.2    88  THR88       0.2618
     36  O         45.3070   28.6290   -0.5530 O.2    88  THR88      -0.2717
     37  CB        42.8100   30.6770    1.0520 C.3    88  THR88       0.1784
     38  OG1       41.9950   31.1880   -0.0220 O.3    88  THR88      -0.2211
     39  CG2       44.0350   31.4500    1.4140 C.3    88  THR88       0.0376
     40  N         43.6000   29.4760   -1.7600 N.am   89  THR89      -0.1952
     41  CA        44.2940   29.3850   -3.0310 C.3    89  THR89       0.1897
     42  C         44.6060   30.7240   -3.6210 C.2    89  THR89       0.2313
     43  O         43.6850   31.5510   -3.5680 O.2    89  THR89      -0.2863
     44  CB        43.3680   28.6050   -4.0870 C.3    89  THR89       0.1794
     45  OG1       42.6350   27.6170   -3.3020 O.3    89  THR89      -0.2208
     46  CG2       44.0820   27.9410   -5.2510 C.3    89  THR89       0.0378
     47  N         45.0040   35.1870   -8.0580 N.3    92  PHE92      -0.1298
     48  CA        45.0940   36.5790   -8.3990 C.3    92  PHE92       0.1290
     49  C         46.4880   37.0400   -8.7380 C.3    92  PHE92       0.2013
     50  O         46.4440   38.1410   -9.3740 O.3    92  PHE92      -0.2188
     51  CB        44.5200   37.4470   -7.2000 C.3    92  PHE92       0.0480
     52  CG        45.0250   37.0730   -5.8370 C.ar   92  PHE92      -0.0206
     53  CD1       46.1940   37.6190   -5.3350 C.ar   92  PHE92      -0.0042
     54  CD2       44.3260   36.1010   -5.0420 C.ar   92  PHE92      -0.0042
     55  CE1       46.6870   37.2600   -4.0910 C.ar   92  PHE92      -0.0003
     56  CE2       44.8060   35.7270   -3.7940 C.ar   92  PHE92      -0.0003
     57  CZ        45.9940   36.3050   -3.3080 C.ar   92  PHE92      -0.0000
     58  N         38.9710   28.8810    2.2580 N.3   133  VAL133     -0.1245
     59  CA        38.5440   30.2430    1.8920 C.3   133  VAL133      0.1561
     60  C         38.7550   30.4610    0.4030 C.2   133  VAL133      0.2260
     61  O         39.7730   30.0770   -0.1730 O.2   133  VAL133     -0.2867
     62  CB        39.2400   31.3760    2.7260 C.3   133  VAL133      0.0252
     63  CG1       39.1770   32.8300    2.3110 C.3   133  VAL133      0.0019
     64  CG2       38.7470   31.3010    4.1740 C.3   133  VAL133      0.0019
     65  N         38.7500   33.9260   -1.9520 N.3   135  TRP135     -0.1241
     66  CA        38.6810   35.3900   -2.1700 C.3   135  TRP135      0.1605
     67  C         38.8130   35.6220   -3.6820 C.2   135  TRP135      0.2264
     68  O         39.9210   35.4930   -4.2290 O.2   135  TRP135     -0.2867
     69  CB        39.7430   36.1780   -1.4230 C.3   135  TRP135      0.0550
     70  CG        39.7490   37.6250   -1.8070 C.ar  135  TRP135      0.0003
     71  CD1       38.6880   38.4720   -1.6800 C.ar  135  TRP135      0.0946
     72  CD2       40.8180   38.3790   -2.4000 C.ar  135  TRP135      0.0152
     73  NE1       39.0450   39.7540   -2.1030 N.ar  135  TRP135     -0.2442
     74  CE2       40.3520   39.7190   -2.5540 C.ar  135  TRP135      0.0810
     75  CE3       42.0850   38.0200   -2.7570 C.ar  135  TRP135      0.0012
     76  CZ2       41.1300   40.7120   -3.1220 C.ar  135  TRP135      0.0191
     77  CZ3       42.8730   39.0050   -3.3230 C.ar  135  TRP135      0.0001
     78  CH2       42.4160   40.3210   -3.4980 C.ar  135  TRP135      0.0015
     79  N         34.8510   35.1940    0.6070 N.3   179  GLU179     -0.1245
     80  CA        35.2950   36.4650    1.0390 C.3   179  GLU179      0.1567
     81  C         35.0570   37.5990    0.0540 C.2   179  GLU179      0.2260
     82  O         35.7350   37.8570   -0.9650 O.2   179  GLU179     -0.2867
     83  CB        36.7770   36.4460    1.3430 C.3   179  GLU179      0.0388
     84  CG        37.2000   37.7350    2.1190 C.3   179  GLU179      0.1160
     85  CD        38.6380   37.6240    2.4970 C.2   179  GLU179      0.3649
     86  OE1       39.2020   36.5910    2.7570 O.co2 179  GLU179     -0.2457
     87  OE2       39.2800   38.6790    2.4560 O.co2 179  GLU179     -0.2457
     88  N         34.6430   41.5980   -1.2150 N.3   181  LYS181     -0.1245
     89  CA        35.4640   42.7940   -1.3730 C.3   181  LYS181      0.1561
     90  C         34.8220   43.6170   -2.4880 C.2   181  LYS181      0.2260
     91  O         34.4770   42.9930   -3.5470 O.2   181  LYS181     -0.2867
     92  CB        36.9050   42.4620   -1.6390 C.3   181  LYS181      0.0271
     93  CG        37.7130   43.7670   -1.3670 C.3   181  LYS181      0.0035
     94  CD        39.1860   43.5900   -1.5930 C.3   181  LYS181      0.0206
     95  CE        39.9770   44.8920   -1.3820 C.3   181  LYS181      0.1093
     96  NZ        41.4060   44.6500   -1.6930 N.3   181  LYS181     -0.1314
     97  N         33.3570   34.5590    4.9010 N.3   213  ASN213     -0.1240
     98  CA        34.5830   34.9830    5.5200 C.3   213  ASN213      0.1653
     99  C         34.6570   36.5420    5.3870 C.2   213  ASN213      0.2266
    100  O         35.4090   37.0820    4.6010 O.2   213  ASN213     -0.2867
    101  CB        35.8550   34.3200    4.9700 C.3   213  ASN213      0.1155
    102  CG        37.1260   34.7040    5.7170 C.2   213  ASN213      0.2627
    103  OD1       37.1560   34.4330    6.9590 O.2   213  ASN213     -0.2716
    104  ND2       38.2080   35.2680    5.2040 N.am  213  ASN213     -0.0877
    105  N         35.5370   40.4980    6.0540 N.3   215  GLU215     -0.1196
    106  CA        36.7780   41.0840    6.5300 C.3   215  GLU215      0.1783
    107  C         36.4750   42.5410    6.8840 C.2   215  GLU215      0.2306
    108  O         35.8530   43.2410    6.0600 O.2   215  GLU215     -0.2863
    109  CB        37.8650   41.0380    5.5000 C.2   215  GLU215      0.0071
    110  CG        39.0470   41.8910    5.7130 C.2   215  GLU215      0.0834
    111  CD        40.2460   41.7530    4.9050 C.2   215  GLU215      0.3877
    112  OE1       40.7520   40.7420    4.4190 O.co2 215  GLU215     -0.2406
    113  OE2       40.7310   42.9550    4.8180 O.co2 215  GLU215     -0.2406
    114  N         37.2290   45.4140    4.2880 N.3   218  HIS218     -0.1241
    115  CA        36.4250   45.2350    3.0930 C.3   218  HIS218      0.1621
    116  C         35.0590   45.8250    3.2200 C.2   218  HIS218      0.2264
    117  O         34.6630   46.6580    2.3490 O.2   218  HIS218     -0.2867
    118  CB        36.3610   43.7470    2.7020 C.3   218  HIS218      0.0745
    119  CG        37.6890   43.2050    2.2760 C.ar  218  HIS218      0.0817
    120  ND1       37.7360   41.8560    1.8770 N.ar  218  HIS218     -0.2268
    121  CD2       38.9210   43.7000    2.1480 C.ar  218  HIS218      0.1154
    122  CE1       38.9720   41.5760    1.5590 C.ar  218  HIS218      0.1986
    123  NE2       39.6890   42.6690    1.7010 N.ar  218  HIS218     -0.2212
    124  N         37.9300   37.6990    9.2120 N.3   243  ASP243     -0.1239
    125  CA        39.2260   38.3020    9.0080 C.3   243  ASP243      0.1674
    126  C         39.1160   39.6400    9.7600 C.2   243  ASP243      0.2266
    127  O         38.2780   40.4330    9.3370 O.2   243  ASP243     -0.2867
    128  CB        39.7010   38.4860    7.5750 C.3   243  ASP243      0.1410
    129  CG        40.2760   37.3000    6.8510 C.2   243  ASP243      0.3668
    130  OD1       40.4580   36.1260    7.2490 O.co2 243  ASP243     -0.2456
    131  OD2       40.6150   37.5250    5.6340 O.co2 243  ASP243     -0.2456
    132  N         42.6320   49.1890    0.1820 N.3   253  ASP253     -0.1239
    133  CA        42.6280   48.2470    1.3800 C.3   253  ASP253      0.1674
    134  C         43.9120   48.5270    2.1780 C.2   253  ASP253      0.2266
    135  O         45.0620   48.2870    1.7160 O.2   253  ASP253     -0.2867
    136  CB        42.4130   46.9360    0.7870 C.3   253  ASP253      0.1410
    137  CG        42.3840   45.6650    1.5740 C.2   253  ASP253      0.3668
    138  OD1       41.6980   45.6850    2.6040 O.co2 253  ASP253     -0.2456
    139  OD2       43.0770   44.6960    1.0680 O.co2 253  ASP253     -0.2456
    140  N         44.6790   47.2260    5.5580 N.3   255  ASP255     -0.1239
    141  CA        45.1240   46.1020    6.3640 C.3   255  ASP255      0.1674
    142  C         45.9540   46.4790    7.5660 C.2   255  ASP255      0.2266
    143  O         46.9790   45.8320    7.7830 O.2   255  ASP255     -0.2867
    144  CB        45.8430   45.0830    5.4660 C.3   255  ASP255      0.1410
    145  CG        44.8200   44.4490    4.5460 C.2   255  ASP255      0.3668
    146  OD1       43.6120   44.5640    4.7170 O.co2 255  ASP255     -0.2456
    147  OD2       45.3160   43.8850    3.5850 O.co2 255  ASP255     -0.2456
    148  N         43.9250   39.1690    9.3330 N.3   291  ASP291     -0.1239
    149  CA        44.3680   39.3960    7.9200 C.3   291  ASP291      0.1674
    150  C         44.8160   40.8810    7.7880 C.2   291  ASP291      0.2266
    151  O         43.9950   41.6910    7.3470 O.2   291  ASP291     -0.2867
    152  CB        43.3210   38.9950    6.8690 C.3   291  ASP291      0.1410
    153  CG        43.8220   39.1660    5.4470 C.2   291  ASP291      0.3668
    154  OD1       45.0190   39.4150    5.2240 O.co2 291  ASP291     -0.2456
    155  OD2       43.1340   39.0280    4.3960 O.co2 291  ASP291     -0.2456
    156  N         48.5820   43.7200    7.3680 N.3   293  LYS293     -0.1245
    157  CA        49.9150   43.8250    6.8410 C.3   293  LYS293      0.1561
    158  C         50.6700   44.8760    7.6740 C.2   293  LYS293      0.2260
    159  O         50.1530   45.9920    7.8580 O.2   293  LYS293     -0.2867
    160  CB        49.9460   44.4810    5.4740 C.3   293  LYS293      0.0271
    161  CG        49.4560   43.6340    4.3150 C.3   293  LYS293      0.0035
    162  CD        49.4440   44.5540    3.0560 C.3   293  LYS293      0.0206
    163  CE        48.8850   43.5780    1.9820 C.3   293  LYS293      0.1093
    164  NZ        48.8510   44.5420    0.7640 N.3   293  LYS293     -0.1314
@<TRIPOS>BOND
     1    50    49    1
     2    49    48    1
     3    48    47    1
     4    48    51    1
     5    51    52    1
     6    52    53   ar
     7    52    54   ar
     8    53    55   ar
     9    46    44    1
    10    54    56   ar
    11    68    67    2
    12    55    57   ar
    13    44    45    1
    14    44    41    1
    15    56    57   ar
    16    67    66    1
    17    42    43    2
    18    42    41    1
    19    91    90    2
    20    78    77   ar
    21    78    76   ar
    22    77    75   ar
    23    76    74   ar
    24    41    40    1
    25    75    72   ar
    26    74    72   ar
    27    74    73   ar
    28    90    89    1
    29    72    70   ar
    30    66    65    1
    31    66    69    1
    32    73    71   ar
    33    70    71   ar
    34    70    69    1
    35    40    35   am
    36    96    95    1
    37    92    89    1
    38    92    93    1
    39    94    95    1
    40    94    93    1
    41    89    88    1
    42    82    81    2
    43    22    20   ar
    44    22    24   ar
    45    35    36    2
    46    35    34    1
    47    19    20    1
    48    19    16    1
    49    20    21   ar
    50    17    18    2
    51    17    16    1
    52    61    60    2
    53    24    23   ar
    54    38    37    1
    55    81    80    1
    56   132   133    1
    57    16    15    1
    58    60    59    1
    59    79    80    1
    60    34    37    1
    61    34    33    1
    62    21    23   ar
    63   164   163    1
    64   136   133    1
    65   136   137    1
    66    80    83    1
    67    37    39    1
    68   139   137   ar
    69    83    84    1
    70   133   134    1
    71   122   123   ar
    72   122   120   ar
    73   137   138   ar
    74   123   121   ar
    75   135   134    2
    76   120   119   ar
    77    59    58    1
    78    59    62    1
    79   163   162    1
    80    84    85    1
    81   121   119   ar
    82   119   118    1
    83    63    62    1
    84   117   116    2
    85    87    85   ar
    86    85    86   ar
    87   118   115    1
    88    62    64    1
    89     5     6    1
    90     5     2    1
    91   162   161    1
    92   115   116    1
    93   115   114    1
    94     7     6   ar
    95     7     9   ar
    96     6     8   ar
    97   147   145   ar
    98     9    10   ar
    99     8    10   ar
   100     8    11   ar
   101    10    12   ar
   102    11    13   ar
   103     2     3    1
   104     2     1    1
   105     4     3    2
   106   161   160    1
   107    12    14   ar
   108   155   153   ar
   109   112   111   ar
   110    13    14   ar
   111   145   146   ar
   112   145   144    1
   113   100    99    2
   114   113   111   ar
   115    97    98    1
   116   111   110    1
   117   101    98    1
   118   101   102    1
   119    31    32    1
   120    31    30    1
   121   104   102   am
   122   154   153   ar
   123    99    98    1
   124   153   152    1
   125   144   141    1
   126   160   157    1
   127   109   110    2
   128   109   106    1
   129   140   141    1
   130   131   129   ar
   131   102   103    2
   132   105   106    1
   133   108   107    2
   134    27    28    2
   135    27    26    1
   136    30    29    1
   137   141   142    1
   138   106   107    1
   139   157   156    1
   140   157   158    1
   141   129   130   ar
   142   129   128    1
   143   152   149    1
   144    26    29    1
   145    26    25    1
   146   151   150    2
   147   142   143    2
   148   128   125    1
   149   158   159    2
   150   150   149    1
   151   149   148    1
   152   125   124    1
   153   125   126    1
   154   127   126    2
