@<TRIPOS>MOLECULE
tmp/1xliB00.pdb
 156 147 0 0 0
SMALL
GASTEIGER

@<TRIPOS>ATOM
      1  N         50.8870   35.0660    5.0380 N.3    14  TRP14      -0.1241
      2  CA        51.0080   36.2210    4.2130 C.3    14  TRP14       0.1605
      3  C         50.8730   37.5250    4.9780 C.2    14  TRP14       0.2264
      4  O         51.1840   38.6050    4.4310 O.2    14  TRP14      -0.2867
      5  CB        49.9320   36.1290    3.1240 C.3    14  TRP14       0.0550
      6  CG        48.5310   36.3770    3.5590 C.ar   14  TRP14       0.0003
      7  CD1       47.8760   37.5670    3.6550 C.ar   14  TRP14       0.0946
      8  CD2       47.5900   35.3460    3.9920 C.ar   14  TRP14       0.0152
      9  NE1       46.6010   37.3710    4.1180 N.ar   14  TRP14      -0.2442
     10  CE2       46.3940   36.0150    4.3130 C.ar   14  TRP14       0.0810
     11  CE3       47.6550   33.9640    4.0850 C.ar   14  TRP14       0.0012
     12  CZ2       45.2630   35.3490    4.7410 C.ar   14  TRP14       0.0191
     13  CZ3       46.5400   33.2800    4.4880 C.ar   14  TRP14       0.0001
     14  CH2       45.3760   33.9800    4.8160 C.ar   14  TRP14       0.0015
     15  N         47.8870   30.3850    1.9430 N.3    52  HIS52      -0.1297
     16  CA        47.4570   30.2370    0.5550 C.3    52  HIS52       0.1306
     17  C         48.4430   29.1470   -0.0060 C.3    52  HIS52       0.2013
     18  O         49.6640   29.2170    0.3950 O.3    52  HIS52      -0.2188
     19  CB        47.5620   31.3960   -0.4230 C.3    52  HIS52       0.0691
     20  CG        47.0090   32.7080   -0.0970 C.ar   52  HIS52       0.0814
     21  ND1       47.7300   33.6230    0.6480 N.ar   52  HIS52      -0.2268
     22  CD2       45.8700   33.3750   -0.4030 C.ar   52  HIS52       0.1154
     23  CE1       47.0350   34.7410    0.7360 C.ar   52  HIS52       0.1986
     24  NE2       45.9110   34.6070    0.1480 N.ar   52  HIS52      -0.2212
     25  N         42.5570   26.8640    8.5470 N.3    86  MET86      -0.1245
     26  CA        41.9720   27.2850    7.2600 C.3    86  MET86       0.1570
     27  C         43.0540   27.2690    6.2200 C.2    86  MET86       0.2261
     28  O         44.2290   27.6060    6.5610 O.2    86  MET86      -0.2867
     29  CB        41.4060   28.6980    7.5210 C.3    86  MET86       0.0387
     30  CG        40.7720   29.3250    6.3370 C.3    86  MET86       0.0595
     31  SD        41.8460   30.1910    5.2020 S.3    86  MET86      -0.1393
     32  CE        42.0720   31.8320    5.8750 C.3    86  MET86       0.0692
     33  N         43.6170   28.3520    1.8290 N.3    88  THR88      -0.1203
     34  CA        43.0060   29.1040    0.7130 C.3    88  THR88       0.1994
     35  C         43.8930   29.0150   -0.5130 C.2    88  THR88       0.2618
     36  O         45.0980   28.5800   -0.4850 O.2    88  THR88      -0.2717
     37  CB        42.7020   30.5640    1.2260 C.3    88  THR88       0.1784
     38  OG1       41.9800   31.2850    0.2110 O.3    88  THR88      -0.2211
     39  CG2       43.9640   31.2720    1.6660 C.3    88  THR88       0.0376
     40  N         43.3190   29.3380   -1.6950 N.am   89  THR89      -0.1952
     41  CA        44.0710   29.2630   -2.9440 C.3    89  THR89       0.1897
     42  C         44.3800   30.6230   -3.5150 C.2    89  THR89       0.2313
     43  O         43.4920   31.4690   -3.3800 O.2    89  THR89      -0.2863
     44  CB        43.2120   28.5400   -4.0680 C.3    89  THR89       0.1794
     45  OG1       42.4860   27.5460   -3.2570 O.3    89  THR89      -0.2208
     46  CG2       43.9340   27.9070   -5.2510 C.3    89  THR89       0.0378
     47  N         44.9730   34.8860   -7.9210 N.3    92  PHE92      -0.1298
     48  CA        45.0470   36.2960   -8.2740 C.3    92  PHE92       0.1290
     49  C         46.4350   36.7470   -8.6240 C.3    92  PHE92       0.2013
     50  O         46.3950   37.7850   -9.3310 O.3    92  PHE92      -0.2188
     51  CB        44.4380   37.1810   -7.1230 C.3    92  PHE92       0.0480
     52  CG        45.0130   36.8590   -5.7640 C.ar   92  PHE92      -0.0206
     53  CD1       46.1670   37.4810   -5.2990 C.ar   92  PHE92      -0.0042
     54  CD2       44.4220   35.8680   -4.9560 C.ar   92  PHE92      -0.0042
     55  CE1       46.7110   37.1840   -4.0680 C.ar   92  PHE92      -0.0003
     56  CE2       44.9410   35.5140   -3.7090 C.ar   92  PHE92      -0.0003
     57  CZ        46.0750   36.1830   -3.2590 C.ar   92  PHE92      -0.0000
     58  N         38.8540   28.7750    2.3820 N.3   133  VAL133     -0.1245
     59  CA        38.4100   30.1140    1.9960 C.3   133  VAL133      0.1561
     60  C         38.7020   30.3790    0.5170 C.2   133  VAL133      0.2260
     61  O         39.7560   30.0880   -0.0460 O.2   133  VAL133     -0.2867
     62  CB        38.9540   31.2570    2.9010 C.3   133  VAL133      0.0252
     63  CG1       38.7260   32.6780    2.4030 C.3   133  VAL133      0.0019
     64  CG2       38.4350   31.1320    4.3230 C.3   133  VAL133      0.0019
     65  N         38.5080   33.7360   -1.9230 N.3   135  TRP135     -0.1241
     66  CA        38.4870   35.2040   -2.1190 C.3   135  TRP135      0.1605
     67  C         38.5300   35.4110   -3.6610 C.2   135  TRP135      0.2264
     68  O         39.5600   35.0390   -4.2640 O.2   135  TRP135     -0.2867
     69  CB        39.6790   35.9460   -1.5480 C.3   135  TRP135      0.0550
     70  CG        39.6940   37.4160   -1.8310 C.ar  135  TRP135      0.0003
     71  CD1       38.7090   38.2930   -1.4650 C.ar  135  TRP135      0.0946
     72  CD2       40.7190   38.2050   -2.4770 C.ar  135  TRP135      0.0152
     73  NE1       39.0750   39.5650   -1.8270 N.ar  135  TRP135     -0.2442
     74  CE2       40.2920   39.5570   -2.4620 C.ar  135  TRP135      0.0810
     75  CE3       41.9340   37.8800   -3.0620 C.ar  135  TRP135      0.0012
     76  CZ2       41.0370   40.5830   -3.0060 C.ar  135  TRP135      0.0191
     77  CZ3       42.6700   38.9070   -3.6260 C.ar  135  TRP135      0.0001
     78  CH2       42.2490   40.2500   -3.5930 C.ar  135  TRP135      0.0015
     79  N         34.7980   35.0280    0.6580 N.3   179  GLU179     -0.1245
     80  CA        35.2410   36.2850    1.2070 C.3   179  GLU179      0.1567
     81  C         34.9710   37.4330    0.2170 C.2   179  GLU179      0.2260
     82  O         35.5820   37.5350   -0.8290 O.2   179  GLU179     -0.2867
     83  CB        36.6870   36.3360    1.5780 C.3   179  GLU179      0.0388
     84  CG        37.0720   37.6420    2.3330 C.3   179  GLU179      0.1160
     85  CD        38.4950   37.5000    2.7550 C.2   179  GLU179      0.3649
     86  OE1       39.1420   36.5090    3.0390 O.co2 179  GLU179     -0.2457
     87  OE2       39.0680   38.5660    2.7310 O.co2 179  GLU179     -0.2457
     88  N         34.6150   41.4020   -1.0400 N.3   181  LYS181     -0.1197
     89  CA        35.4190   42.5810   -1.2470 C.3   181  LYS181      0.1778
     90  C         34.7360   43.3150   -2.4300 C.2   181  LYS181      0.2305
     91  O         34.3920   42.6600   -3.4440 O.2   181  LYS181     -0.2863
     92  CB        36.8900   42.4070   -1.5100 C.2   181  LYS181     -0.0042
     93  CG        37.7730   43.5830   -1.2500 C.2   181  LYS181     -0.0273
     94  CD        39.2090   43.4630   -1.6890 C.3   181  LYS181      0.0462
     95  CE        40.0560   44.6530   -1.2650 C.3   181  LYS181      0.1140
     96  NZ        41.4690   44.5920   -1.7310 N.3   181  LYS181     -0.1310
     97  N         35.4180   40.2920    6.1960 N.3   215  GLU215     -0.1196
     98  CA        36.6190   40.9330    6.6140 C.3   215  GLU215      0.1783
     99  C         36.2250   42.3540    6.9850 C.2   215  GLU215      0.2306
    100  O         35.6010   43.0870    6.1710 O.2   215  GLU215     -0.2863
    101  CB        37.7120   40.9890    5.5260 C.2   215  GLU215      0.0071
    102  CG        38.8610   41.9640    5.7860 C.2   215  GLU215      0.0834
    103  CD        40.0510   41.7770    4.9560 C.2   215  GLU215      0.3877
    104  OE1       40.5230   40.7380    4.5580 O.co2 215  GLU215     -0.2406
    105  OE2       40.5500   42.9100    4.7240 O.co2 215  GLU215     -0.2406
    106  N         37.0210   45.1810    4.4450 N.3   218  HIS218     -0.1241
    107  CA        36.2800   44.9740    3.1980 C.3   218  HIS218      0.1621
    108  C         34.8840   45.5150    3.2940 C.2   218  HIS218      0.2264
    109  O         34.5600   46.3290    2.3990 O.2   218  HIS218     -0.2867
    110  CB        36.2460   43.5360    2.6970 C.3   218  HIS218      0.0745
    111  CG        37.6300   43.0830    2.3040 C.ar  218  HIS218      0.0817
    112  ND1       37.7600   41.7590    1.9480 N.ar  218  HIS218     -0.2268
    113  CD2       38.8440   43.6060    2.2040 C.ar  218  HIS218      0.1154
    114  CE1       39.0000   41.5040    1.6610 C.ar  218  HIS218      0.1986
    115  NE2       39.6800   42.6300    1.8320 N.ar  218  HIS218     -0.2212
    116  N         37.7210   37.4820    9.2400 N.3   243  ASP243     -0.1239
    117  CA        39.0150   38.1280    9.0960 C.3   243  ASP243      0.1674
    118  C         38.8470   39.4560    9.8610 C.2   243  ASP243      0.2266
    119  O         38.0060   40.2210    9.4260 O.2   243  ASP243     -0.2867
    120  CB        39.4900   38.4000    7.6790 C.3   243  ASP243      0.1410
    121  CG        40.0900   37.2920    6.8570 C.2   243  ASP243      0.3668
    122  OD1       40.3190   36.1410    7.2620 O.co2 243  ASP243     -0.2456
    123  OD2       40.3750   37.5850    5.6470 O.co2 243  ASP243     -0.2456
    124  N         42.4270   48.9240    0.2230 N.3   253  ASP253     -0.1239
    125  CA        42.3790   47.9620    1.3740 C.3   253  ASP253      0.1674
    126  C         43.6260   48.2540    2.2380 C.2   253  ASP253      0.2266
    127  O         44.7680   47.9960    1.7610 O.2   253  ASP253     -0.2867
    128  CB        42.2680   46.6200    0.7420 C.3   253  ASP253      0.1410
    129  CG        42.0870   45.4420    1.6330 C.2   253  ASP253      0.3668
    130  OD1       41.4180   45.5680    2.6710 O.co2 253  ASP253     -0.2456
    131  OD2       42.6360   44.3990    1.2570 O.co2 253  ASP253     -0.2456
    132  N         44.2950   46.9890    5.6100 N.3   255  ASP255     -0.1239
    133  CA        44.5840   45.8110    6.4210 C.3   255  ASP255      0.1674
    134  C         45.4470   46.1860    7.6210 C.2   255  ASP255      0.2266
    135  O         46.5200   45.5820    7.8030 O.2   255  ASP255     -0.2867
    136  CB        45.2680   44.7610    5.5680 C.3   255  ASP255      0.1410
    137  CG        44.3880   44.0860    4.5620 C.2   255  ASP255      0.3668
    138  OD1       43.1520   44.1540    4.5990 O.co2 255  ASP255     -0.2456
    139  OD2       45.0210   43.4320    3.7170 O.co2 255  ASP255     -0.2456
    140  N         43.6560   39.0610    9.3770 N.3   291  ASP291     -0.1239
    141  CA        44.1410   39.2530    8.0060 C.3   291  ASP291      0.1674
    142  C         44.6380   40.7180    7.9530 C.2   291  ASP291      0.2266
    143  O         43.8580   41.6120    7.5570 O.2   291  ASP291     -0.2867
    144  CB        43.0960   38.9070    6.9420 C.3   291  ASP291      0.1410
    145  CG        43.5260   39.2140    5.5170 C.2   291  ASP291      0.3668
    146  OD1       44.7450   39.3190    5.3220 O.co2 291  ASP291     -0.2456
    147  OD2       42.8310   39.3680    4.5040 O.co2 291  ASP291     -0.2456
    148  N         48.2860   43.5410    7.4630 N.3   293  LYS293     -0.1245
    149  CA        49.6030   43.7150    6.8720 C.3   293  LYS293      0.1561
    150  C         50.3670   44.7450    7.7320 C.2   293  LYS293      0.2260
    151  O         49.8980   45.8540    7.9930 O.2   293  LYS293     -0.2867
    152  CB        49.5630   44.2570    5.5060 C.3   293  LYS293      0.0271
    153  CG        49.0820   43.5740    4.2640 C.3   293  LYS293      0.0035
    154  CD        48.9280   44.7640    3.3010 C.3   293  LYS293      0.0206
    155  CE        48.9590   44.3970    1.8590 C.3   293  LYS293      0.1093
    156  NZ        48.4300   43.0330    1.6050 N.3   293  LYS293     -0.1314
@<TRIPOS>BOND
     1    50    49    1
     2    49    48    1
     3    48    47    1
     4    48    51    1
     5    51    52    1
     6    52    53   ar
     7    52    54   ar
     8    53    55   ar
     9    46    44    1
    10    54    56   ar
    11    68    67    2
    12    55    57   ar
    13    44    45    1
    14    44    41    1
    15    56    57   ar
    16    67    66    1
    17    77    78   ar
    18    77    75   ar
    19    78    76   ar
    20    42    43    2
    21    42    41    1
    22    91    90    2
    23    75    72   ar
    24    76    74   ar
    25    41    40    1
    26    72    74   ar
    27    72    70   ar
    28    74    73   ar
    29    90    89    1
    30    66    65    1
    31    66    69    1
    32    70    69    1
    33    70    71   ar
    34    73    71   ar
    35    96    95    1
    36    40    35   am
    37    94    95    1
    38    94    93    1
    39    92    93    2
    40    92    89    1
    41    89    88    1
    42    82    81    2
    43    35    36    2
    44    35    34    1
    45    19    20    1
    46    19    16    1
    47    22    20   ar
    48    22    24   ar
    49    20    21   ar
    50    61    60    2
    51    17    18    1
    52    17    16    1
    53    24    23   ar
    54    38    37    1
    55    81    80    1
    56   124   125    1
    57    60    59    1
    58    16    15    1
    59    21    23   ar
    60    79    80    1
    61    34    37    1
    62    34    33    1
    63   128   125    1
    64   128   129    1
    65    80    83    1
    66    37    39    1
    67   131   129   ar
    68   125   126    1
    69    83    84    1
    70   156   155    1
    71   129   130   ar
    72   114   115   ar
    73   114   112   ar
    74   127   126    2
    75   115   113   ar
    76   155   154    1
    77   112   111   ar
    78    59    58    1
    79    59    62    1
    80   113   111   ar
    81   111   110    1
    82    84    85    1
    83   109   108    2
    84    63    62    1
    85   110   107    1
    86    87    85   ar
    87    85    86   ar
    88    62    64    1
    89     5     6    1
    90     5     2    1
    91   107   108    1
    92   107   106    1
    93   154   153    1
    94     6     7   ar
    95     6     8   ar
    96     7     9   ar
    97   139   137   ar
    98     8    11   ar
    99     8    10   ar
   100    11    13   ar
   101     9    10   ar
   102     2     3    1
   103     2     1    1
   104   153   152    1
   105    10    12   ar
   106     4     3    2
   107    13    14   ar
   108   147   145   ar
   109   104   103   ar
   110   137   138   ar
   111   137   136    1
   112   105   103   ar
   113    12    14   ar
   114   103   102    1
   115    31    32    1
   116    31    30    1
   117   146   145   ar
   118   152   149    1
   119   145   144    1
   120   101   102    2
   121   101    98    1
   122   136   133    1
   123   132   133    1
   124   123   121   ar
   125   100    99    2
   126    97    98    1
   127    27    28    2
   128    27    26    1
   129    30    29    1
   130   133   134    1
   131    98    99    1
   132   121   122   ar
   133   121   120    1
   134   149   148    1
   135   149   150    1
   136   144   141    1
   137    26    29    1
   138    26    25    1
   139   143   142    2
   140   134   135    2
   141   120   117    1
   142   150   151    2
   143   142   141    1
   144   141   140    1
   145   117   116    1
   146   117   118    1
   147   119   118    2
