@<TRIPOS>MOLECULE
tmp/1xlrA01.pdb
 116 109 0 0 0
SMALL
GASTEIGER

@<TRIPOS>ATOM
      1  N         24.1300   -6.8900   35.0340 N.3    31  GLU31      -0.1231
      2  CA        23.9740   -6.6730   33.5920 C.3    31  GLU31       0.1699
      3  C         22.8090   -7.4780   33.0080 C.2    31  GLU31       0.2592
      4  O         22.9860   -8.2070   32.0440 O.2    31  GLU31      -0.2718
      5  CB        25.2410   -7.0650   32.8520 C.3    31  GLU31       0.0402
      6  CG        26.4500   -6.3980   33.4310 C.3    31  GLU31       0.1161
      7  CD        27.7440   -6.7670   32.7120 C.2    31  GLU31       0.3649
      8  OE1       27.9660   -6.3210   31.5610 O.co2  31  GLU31      -0.2457
      9  OE2       28.5420   -7.5030   33.3330 O.co2  31  GLU31      -0.2457
     10  N         21.6200   -7.3250   33.5720 N.am   32  ASP32      -0.1960
     11  CA        20.4460   -8.0780   33.0810 C.3    32  ASP32       0.1840
     12  C         19.2930   -7.4670   33.8580 C.2    32  ASP32       0.2622
     13  O         19.5220   -6.7300   34.8130 O.2    32  ASP32      -0.2715
     14  CB        20.5330   -9.5460   33.5280 C.3    32  ASP32       0.1450
     15  CG        19.7040  -10.4940   32.6660 C.2    32  ASP32       0.3671
     16  OD1       18.9500  -10.0460   31.8100 O.co2  32  ASP32      -0.2456
     17  OD2       19.8200  -11.7200   32.8270 O.co2  32  ASP32      -0.2456
     18  N         18.0740   -7.8500   33.4710 N.am   33  SER33      -0.1950
     19  CA        16.8040   -7.4780   34.1380 C.3    33  SER33       0.1924
     20  C         16.8460   -8.3240   35.4480 C.2    33  SER33       0.2314
     21  O         17.7290   -9.1460   35.5890 O.2    33  SER33      -0.2863
     22  CB        15.6320   -7.9750   33.2800 C.3    33  SER33       0.2116
     23  OG        15.5550   -9.4120   33.3650 O.3    33  SER33      -0.2180
     24  N         10.8830   -9.3230   30.7480 N.3   114  LEU114     -0.1231
     25  CA        12.0850   -9.0030   29.9870 C.3   114  LEU114      0.1693
     26  C         13.3380   -9.6600   30.5930 C.2   114  LEU114      0.2593
     27  O         13.4320   -9.8030   31.7970 O.2   114  LEU114     -0.2718
     28  CB        12.2500   -7.5000   30.0300 C.3   114  LEU114      0.0284
     29  CG        13.1490   -6.8580   29.0900 C.3   114  LEU114      0.0019
     30  CD1       12.7840   -7.2650   27.6540 C.3   114  LEU114      0.0001
     31  CD2       12.9540   -5.2880   29.2470 C.3   114  LEU114      0.0001
     32  N         14.2750  -10.0900   29.7580 N.am  115  GLY115     -0.1942
     33  CA        15.5080  -10.6630   30.2590 C.3   115  GLY115      0.2014
     34  C         16.4510  -10.9800   29.0960 C.2   115  GLY115      0.2638
     35  O         15.9920  -11.1090   27.9580 O.2   115  GLY115     -0.2714
     36  N         17.7550  -11.1300   29.3830 N.am  116  ARG116     -0.1977
     37  CA        18.6880  -11.4600   28.3180 C.3   116  ARG116      0.1597
     38  C         18.3080  -12.7770   27.6010 C.2   116  ARG116      0.2287
     39  O         18.5980  -12.9380   26.4200 O.2   116  ARG116     -0.2864
     40  CB        20.1200  -11.5310   28.8400 C.3   116  ARG116      0.0334
     41  CG        20.5920  -10.2060   29.3000 C.3   116  ARG116      0.0492
     42  CD        21.9350  -10.3130   29.9590 C.3   116  ARG116      0.2205
     43  NE        22.9220  -10.7660   28.9950 N.pl3 116  ARG116     -0.0865
     44  CZ        24.2050  -10.4840   29.0400 C.cat 116  ARG116      0.5346
     45  NH1       24.7190   -9.7370   30.0360 N.pl3 116  ARG116      0.1354
     46  NH2       24.9580  -10.9290   28.0570 N.pl3 116  ARG116      0.1354
     47  N         16.7970  -12.1900   24.0290 N.3   119  PHE119     -0.1241
     48  CA        17.4590  -11.5430   22.8880 C.3   119  PHE119      0.1605
     49  C         18.7220  -12.2260   22.4220 C.2   119  PHE119      0.2264
     50  O         19.6490  -11.5610   21.9490 O.2   119  PHE119     -0.2867
     51  CB        17.8420  -10.0950   23.2230 C.3   119  PHE119      0.0534
     52  CG        16.7330   -9.2930   23.8050 C.ar  119  PHE119     -0.0203
     53  CD1       16.9470   -8.5150   24.9440 C.ar  119  PHE119     -0.0042
     54  CD2       15.4760   -9.2850   23.2090 C.ar  119  PHE119     -0.0042
     55  CE1       15.9160   -7.7430   25.4820 C.ar  119  PHE119     -0.0003
     56  CE2       14.4430   -8.5160   23.7380 C.ar  119  PHE119     -0.0003
     57  CZ        14.6590   -7.7470   24.8640 C.ar  119  PHE119     -0.0000
     58  N         23.9630   -7.0800   22.7140 N.3   124  LEU124     -0.1231
     59  CA        23.5130   -6.2300   23.7960 C.3   124  LEU124      0.1693
     60  C         24.6420   -5.4910   24.5540 C.2   124  LEU124      0.2593
     61  O         25.7000   -6.0530   24.8600 O.2   124  LEU124     -0.2718
     62  CB        22.6740   -7.1090   24.7000 C.3   124  LEU124      0.0284
     63  CG        21.8510   -6.5490   25.8440 C.3   124  LEU124      0.0019
     64  CD1       21.3060   -5.2010   25.5380 C.3   124  LEU124      0.0001
     65  CD2       20.7250   -7.5180   26.0800 C.3   124  LEU124      0.0001
     66  N         24.4470   -4.2030   24.7840 N.am  125  THR125     -0.1939
     67  CA        25.4420   -3.4420   25.4810 C.3   125  THR125      0.2028
     68  C         24.6940   -2.3930   26.3230 C.2   125  THR125      0.2642
     69  O         23.5260   -2.1130   26.1070 O.2   125  THR125     -0.2714
     70  CB        26.4840   -2.7460   24.5180 C.3   125  THR125      0.1808
     71  OG1       25.9420   -1.5430   23.9450 O.3   125  THR125     -0.2208
     72  CG2       26.8860   -3.6710   23.3900 C.3   125  THR125      0.0379
     73  N         25.3650   -1.8780   27.3290 N.am  126  ARG126     -0.1977
     74  CA        24.7680   -0.8640   28.1770 C.3   126  ARG126      0.1597
     75  C         25.7190    0.3200   28.1540 C.2   126  ARG126      0.2287
     76  O         26.8790    0.1400   28.4390 O.2   126  ARG126     -0.2864
     77  CB        24.6070   -1.4490   29.5740 C.3   126  ARG126      0.0334
     78  CG        24.1990   -0.4720   30.6090 C.3   126  ARG126      0.0492
     79  CD        23.8120   -1.2490   31.8310 C.3   126  ARG126      0.2205
     80  NE        24.9150   -1.5970   32.6880 N.pl3 126  ARG126     -0.0865
     81  CZ        24.8100   -2.4020   33.7490 C.cat 126  ARG126      0.5346
     82  NH1       23.6390   -2.9660   34.0990 N.pl3 126  ARG126      0.1354
     83  NH2       25.8940   -2.6800   34.4680 N.pl3 126  ARG126      0.1354
     84  N         17.1560    2.3960   39.7130 N.3   140  ARG140     -0.1245
     85  CA        18.2270    2.5740   38.7570 C.3   140  ARG140      0.1563
     86  C         17.6830    2.8540   37.3520 C.2   140  ARG140      0.2260
     87  O         16.5470    2.4580   37.0520 O.2   140  ARG140     -0.2867
     88  CB        19.1240    1.3500   38.7300 C.3   140  ARG140      0.0307
     89  CG        18.5230    0.0990   38.0950 C.3   140  ARG140      0.0489
     90  CD        19.6140   -0.9980   37.9290 C.3   140  ARG140      0.2205
     91  NE        19.0040   -2.1300   37.2370 N.pl3 140  ARG140     -0.0865
     92  CZ        19.6160   -3.2320   36.8470 C.cat 140  ARG140      0.5346
     93  NH1       20.8910   -3.3950   37.0720 N.pl3 140  ARG140      0.1354
     94  NH2       18.9240   -4.1610   36.1710 N.pl3 140  ARG140      0.1354
     95  N         18.9810    2.7630   33.1290 N.3   142  SER142     -0.1217
     96  CA        19.9890    2.3250   32.1740 C.3   142  SER142      0.1889
     97  C         19.6350    2.5670   30.7160 C.2   142  SER142      0.2288
     98  O         18.4770    2.4030   30.3370 O.2   142  SER142     -0.2866
     99  CB        20.1630    0.8130   32.2510 C.3   142  SER142      0.2089
    100  OG        20.2080    0.3640   33.5420 O.3   142  SER142     -0.2183
    101  N         20.2080    0.8800   27.3650 N.3   144  LEU144     -0.1245
    102  CA        20.7180   -0.3410   26.7400 C.3   144  LEU144      0.1561
    103  C         20.6730   -0.1840   25.2050 C.2   144  LEU144      0.2260
    104  O         19.8900    0.6110   24.6720 O.2   144  LEU144     -0.2867
    105  CB        19.8610   -1.5390   27.1340 C.3   144  LEU144      0.0270
    106  CG        19.6080   -1.6200   28.6410 C.3   144  LEU144      0.0019
    107  CD1       18.7390   -2.7980   28.8090 C.3   144  LEU144      0.0001
    108  CD2       20.8930   -1.7280   29.4750 C.3   144  LEU144      0.0001
    109  N         15.6470    1.9560   30.2740 N.3   153  LEU153     -0.1245
    110  CA        14.9650    1.0370   31.2250 C.3   153  LEU153      0.1561
    111  C         15.1220    1.5720   32.6690 C.2   153  LEU153      0.2260
    112  O         16.2620    1.7550   33.1310 O.2   153  LEU153     -0.2867
    113  CB        15.5490   -0.4050   31.0940 C.3   153  LEU153      0.0270
    114  CG        15.2470   -1.4430   32.2000 C.3   153  LEU153      0.0019
    115  CD1       13.7600   -1.8230   32.2160 C.3   153  LEU153      0.0001
    116  CD2       16.0690   -2.6870   32.0190 C.3   153  LEU153      0.0001
@<TRIPOS>BOND
     1    50    49    2
     2    49    48    1
     3    58    59    1
     4    48    51    1
     5    48    47    1
     6    54    56   ar
     7    54    52   ar
     8    51    52    1
     9    72    70    1
    10    56    57   ar
    11    59    60    1
    12    59    62    1
    13    52    53   ar
    14    71    70    1
    15    70    67    1
    16    60    66   am
    17    60    61    2
    18   104   103    2
    19    62    63    1
    20    66    67    1
    21    57    55   ar
    22    53    55   ar
    23   103   102    1
    24    67    68    1
    25    64    63    1
    26    63    65    1
    27    69    68    2
    28    68    73   am
    29    39    38    2
    30   102   105    1
    31   102   101    1
    32   105   106    1
    33    73    74    1
    34    38    37    1
    35    30    29    1
    36    35    34    2
    37    46    44    1
    38    75    74    1
    39    75    76    2
    40    74    77    1
    41    37    40    1
    42    37    36    1
    43   106   107    1
    44   106   108    1
    45    40    41    1
    46    43    44    2
    47    43    42    1
    48    44    45    1
    49    29    31    1
    50    29    28    1
    51    34    36   am
    52    34    33    1
    53    41    42    1
    54    77    78    1
    55    32    33    1
    56    32    26   am
    57    25    28    1
    58    25    26    1
    59    25    24    1
    60   109   110    1
    61    98    97    2
    62    26    27    2
    63    78    79    1
    64    97    96    1
    65   113   110    1
    66   113   114    1
    67   110   111    1
    68     8     7   ar
    69    16    15   ar
    70    79    80    1
    71   116   114    1
    72     4     3    2
    73    96    99    1
    74    96    95    1
    75   114   115    1
    76    99   100    1
    77    15    17   ar
    78    15    14    1
    79   111   112    2
    80    80    81    2
    81     7     9   ar
    82     7     6    1
    83     5     6    1
    84     5     2    1
    85     3    10   am
    86     3     2    1
    87    11    14    1
    88    11    10    1
    89    11    12    1
    90    22    23    1
    91    22    19    1
    92    18    12   am
    93    18    19    1
    94     2     1    1
    95    81    82    1
    96    81    83    1
    97    12    13    2
    98    19    20    1
    99    20    21    2
   100    94    92    1
   101    92    93    1
   102    92    91    2
   103    87    86    2
   104    91    90    1
   105    86    85    1
   106    90    89    1
   107    89    88    1
   108    88    85    1
   109    85    84    1
