@<TRIPOS>MOLECULE
tmp/1xlsF00.pdb
 218 208 0 0 0
SMALL
GASTEIGER

@<TRIPOS>ATOM
      1  N         41.9800  -21.1580  -48.2770 N.3    26  PHE26      -0.1241
      2  CA        41.0720  -20.1880  -48.8810 C.3    26  PHE26       0.1605
      3  C         41.6130  -19.5520  -50.1540 C.2    26  PHE26       0.2264
      4  O         40.8340  -19.1970  -51.0310 O.2    26  PHE26      -0.2867
      5  CB        40.6510  -19.1340  -47.8630 C.3    26  PHE26       0.0534
      6  CG        39.6650  -19.6560  -46.8480 C.ar   26  PHE26      -0.0203
      7  CD1       39.1480  -20.9480  -46.9660 C.ar   26  PHE26      -0.0042
      8  CD2       39.2430  -18.8570  -45.7840 C.ar   26  PHE26      -0.0042
      9  CE1       38.2170  -21.4390  -46.0370 C.ar   26  PHE26      -0.0003
     10  CE2       38.3160  -19.3350  -44.8460 C.ar   26  PHE26      -0.0003
     11  CZ        37.7990  -20.6320  -44.9730 C.ar   26  PHE26      -0.0000
     12  N         33.0840  -15.3090  -51.0570 N.3    55  PHE55      -0.1227
     13  CA        32.4220  -15.6840  -49.8280 C.3    55  PHE55       0.1736
     14  C         31.6100  -16.9560  -50.0120 C.2    55  PHE55       0.2595
     15  O         31.6000  -17.8190  -49.1430 O.2    55  PHE55      -0.2718
     16  CB        31.5390  -14.5460  -49.3230 C.3    55  PHE55       0.0547
     17  CG        32.2910  -13.5040  -48.5460 C.ar   55  PHE55      -0.0202
     18  CD1       32.8610  -13.8200  -47.3120 C.ar   55  PHE55      -0.0042
     19  CD2       32.4720  -12.2180  -49.0690 C.ar   55  PHE55      -0.0042
     20  CE1       33.6050  -12.8830  -46.6020 C.ar   55  PHE55      -0.0003
     21  CE2       33.2170  -11.2660  -48.3700 C.ar   55  PHE55      -0.0003
     22  CZ        33.7880  -11.6050  -47.1270 C.ar   55  PHE55      -0.0000
     23  N         30.9350  -17.0870  -51.1390 N.am   56  ALA56      -0.1980
     24  CA        30.1520  -18.2910  -51.3690 C.3    56  ALA56       0.1597
     25  C         31.0820  -19.4800  -51.5720 C.2    56  ALA56       0.2287
     26  O         30.8030  -20.5800  -51.1060 O.2    56  ALA56      -0.2864
     27  CB        29.2660  -18.1190  -52.5810 C.3    56  ALA56       0.0319
     28  N         34.2690  -20.0570  -50.3860 N.3    58  ILE58      -0.1231
     29  CA        34.9030  -20.5300  -49.1590 C.3    58  ILE58       0.1692
     30  C         33.9020  -21.2380  -48.2530 C.2    58  ILE58       0.2592
     31  O         34.2760  -22.1610  -47.5420 O.2    58  ILE58      -0.2718
     32  CB        35.5990  -19.3900  -48.3660 C.3    58  ILE58       0.0266
     33  CG1       34.6860  -18.1770  -48.2560 C.3    58  ILE58       0.0019
     34  CG2       36.8980  -18.9950  -49.0290 C.3    58  ILE58       0.0020
     35  CD1       35.3260  -16.9990  -47.5200 C.3    58  ILE58       0.0001
     36  N         32.6320  -20.8310  -48.2830 N.am   59  ASN59      -0.1974
     37  CA        31.6180  -21.4620  -47.4390 C.3    59  ASN59       0.1688
     38  C         31.2480  -22.8370  -47.9090 C.2    59  ASN59       0.2292
     39  O         31.0670  -23.7290  -47.0920 O.2    59  ASN59      -0.2864
     40  CB        30.3710  -20.6060  -47.3420 C.3    59  ASN59       0.1181
     41  CG        30.4200  -19.6600  -46.1640 C.2    59  ASN59       0.2629
     42  OD1       31.3300  -18.8310  -46.0570 O.2    59  ASN59      -0.2716
     43  ND2       29.4390  -19.7760  -45.2620 N.am   59  ASN59      -0.0877
     44  N         34.0150  -24.8570  -46.9090 N.3    62  MET62      -0.1245
     45  CA        33.9780  -25.1250  -45.4660 C.3    62  MET62       0.1570
     46  C         32.8850  -26.1260  -45.0810 C.2    62  MET62       0.2261
     47  O         33.0680  -26.9260  -44.1740 O.2    62  MET62      -0.2867
     48  CB        33.7880  -23.8430  -44.6660 C.3    62  MET62       0.0387
     49  CG        35.0240  -23.0040  -44.5620 C.3    62  MET62       0.0595
     50  SD        34.7970  -21.6550  -43.3960 S.3    62  MET62      -0.1393
     51  CE        33.8490  -20.4100  -44.4170 C.3    62  MET62       0.0692
     52  N         30.8320  -24.3840  -38.2660 N.3    96  LEU96      -0.1231
     53  CA        31.6960  -23.5370  -39.0720 C.3    96  LEU96       0.1693
     54  C         32.2500  -22.3770  -38.2730 C.2    96  LEU96       0.2592
     55  O         33.4510  -22.1450  -38.2540 O.2    96  LEU96      -0.2718
     56  CB        30.9260  -23.0340  -40.2980 C.3    96  LEU96       0.0284
     57  CG        31.7080  -22.2100  -41.3150 C.3    96  LEU96       0.0019
     58  CD1       31.0450  -22.3040  -42.6630 C.3    96  LEU96       0.0001
     59  CD2       31.8030  -20.7750  -40.8640 C.3    96  LEU96       0.0001
     60  N         31.3760  -21.6460  -37.5940 N.am   97  HIS97      -0.1976
     61  CA        31.8250  -20.5100  -36.7950 C.3    97  HIS97       0.1656
     62  C         32.6710  -20.9110  -35.5940 C.2    97  HIS97       0.2291
     63  O         33.6450  -20.2430  -35.2580 O.2    97  HIS97      -0.2864
     64  CB        30.6180  -19.6940  -36.3590 C.3    97  HIS97       0.0771
     65  CG        30.0010  -18.9380  -37.4790 C.ar   97  HIS97       0.0820
     66  ND1       30.6180  -17.8470  -38.0580 N.ar   97  HIS97      -0.2267
     67  CD2       28.8750  -19.1660  -38.1940 C.ar   97  HIS97       0.1154
     68  CE1       29.8950  -17.4350  -39.0860 C.ar   97  HIS97       0.1986
     69  NE2       28.8330  -18.2180  -39.1900 N.ar   97  HIS97      -0.2212
     70  N         35.8250  -21.5220  -37.3110 N.3   100  LEU100     -0.1245
     71  CA        36.3710  -20.2980  -37.9140 C.3   100  LEU100      0.1561
     72  C         36.9690  -19.3480  -36.8720 C.2   100  LEU100      0.2260
     73  O         37.8960  -18.5900  -37.1600 O.2   100  LEU100     -0.2867
     74  CB        35.2790  -19.5530  -38.6580 C.3   100  LEU100      0.0270
     75  CG        35.7680  -18.2160  -39.2210 C.3   100  LEU100      0.0019
     76  CD1       36.7800  -18.4960  -40.3070 C.3   100  LEU100      0.0001
     77  CD2       34.5970  -17.3960  -39.7640 C.3   100  LEU100      0.0001
     78  N         39.6070  -11.5690  -39.3250 N.3   111  PHE111     -0.1241
     79  CA        39.7450  -13.0140  -39.4620 C.3   111  PHE111      0.1605
     80  C         41.0120  -13.2960  -40.2500 C.2   111  PHE111      0.2264
     81  O         41.1760  -12.7990  -41.3610 O.2   111  PHE111     -0.2867
     82  CB        38.5450  -13.6170  -40.1740 C.3   111  PHE111      0.0534
     83  CG        37.3300  -13.6660  -39.3210 C.ar  111  PHE111     -0.0203
     84  CD1       36.5470  -12.5420  -39.1480 C.ar  111  PHE111     -0.0042
     85  CD2       36.9730  -14.8330  -38.6650 C.ar  111  PHE111     -0.0042
     86  CE1       35.4200  -12.5750  -38.3380 C.ar  111  PHE111     -0.0003
     87  CE2       35.8430  -14.8790  -37.8520 C.ar  111  PHE111     -0.0003
     88  CZ        35.0670  -13.7470  -37.6900 C.ar  111  PHE111     -0.0000
     89  N         43.0120  -16.0250  -42.1220 N.3   113  CYS113     -0.1235
     90  CA        43.0520  -17.3380  -42.7290 C.3   113  CYS113      0.1677
     91  C         44.1820  -17.3420  -43.7340 C.2   113  CYS113      0.2270
     92  O         44.0330  -16.8340  -44.8540 O.2   113  CYS113     -0.2867
     93  CB        41.7310  -17.6240  -43.4240 C.3   113  CYS113      0.0956
     94  SG        40.3200  -17.5660  -42.3030 S.3   113  CYS113     -0.0801
     95  N         40.3490  -11.2230  -43.5000 N.3   118  TYR118     -0.1227
     96  CA        38.9770  -10.8270  -43.7110 C.3   118  TYR118      0.1736
     97  C         38.5170   -9.8410  -42.6400 C.2   118  TYR118      0.2595
     98  O         38.5080  -10.1600  -41.4320 O.2   118  TYR118     -0.2718
     99  CB        38.0660  -12.0450  -43.7020 C.3   118  TYR118      0.0548
    100  CG        38.3820  -13.0420  -44.7840 C.ar  118  TYR118     -0.0200
    101  CD1       39.3250  -14.0580  -44.5840 C.ar  118  TYR118     -0.0009
    102  CD2       37.7450  -12.9700  -46.0120 C.ar  118  TYR118     -0.0009
    103  CE1       39.6170  -14.9760  -45.5760 C.ar  118  TYR118      0.0417
    104  CE2       38.0340  -13.8780  -47.0200 C.ar  118  TYR118      0.0417
    105  CZ        38.9650  -14.8800  -46.7930 C.ar  118  TYR118      0.1957
    106  OH        39.2090  -15.7950  -47.7870 O.3   118  TYR118     -0.2866
    107  N         38.1460   -8.6460  -43.0970 N.am  119  LYS119     -0.1966
    108  CA        37.6540   -7.5970  -42.2210 C.3   119  LYS119      0.1728
    109  C         36.1230   -7.5670  -42.3000 C.2   119  LYS119      0.2616
    110  O         35.5250   -8.2080  -43.1730 O.2   119  LYS119     -0.2715
    111  CB        38.2430   -6.2760  -42.6550 C.3   119  LYS119      0.0311
    112  CG        39.7420   -6.2280  -42.5280 C.3   119  LYS119      0.0038
    113  CD        40.2900   -4.8790  -42.9940 C.3   119  LYS119      0.0206
    114  CE        41.7900   -4.7390  -42.7320 C.3   119  LYS119      0.1093
    115  NZ        42.1020   -4.5870  -41.2700 N.3   119  LYS119     -0.1314
    116  N         35.4860   -6.8470  -41.3860 N.am  120  MET120     -0.1977
    117  CA        34.0280   -6.7720  -41.3920 C.3   120  MET120      0.1605
    118  C         33.5550   -6.0050  -42.6180 C.2   120  MET120      0.2287
    119  O         32.5400   -6.3550  -43.2100 O.2   120  MET120     -0.2864
    120  CB        33.5060   -6.1150  -40.1080 C.3   120  MET120      0.0413
    121  CG        34.0580   -6.7380  -38.8120 C.3   120  MET120      0.0598
    122  SD        35.3260   -5.7340  -37.8970 S.3   120  MET120     -0.1393
    123  CE        36.8560   -6.0990  -38.8110 C.3   120  MET120      0.0692
    124  N         32.5440   -7.9570  -45.7060 N.3   123  ALA123     -0.1245
    125  CA        31.2380   -8.5820  -45.6770 C.3   123  ALA123      0.1562
    126  C         30.1420   -7.5930  -46.0520 C.2   123  ALA123      0.2260
    127  O         29.2610   -7.9240  -46.8450 O.2   123  ALA123     -0.2867
    128  CB        30.9650   -9.1690  -44.2950 C.3   123  ALA123      0.0290
    129  N         26.1390   -8.3650  -47.3780 N.3   128  PHE128     -0.1241
    130  CA        25.4160   -8.8580  -46.2060 C.3   128  PHE128      0.1605
    131  C         24.9760   -7.7220  -45.2780 C.2   128  PHE128      0.2264
    132  O         25.5610   -6.6400  -45.2940 O.2   128  PHE128     -0.2867
    133  CB        26.2750   -9.8680  -45.4520 C.3   128  PHE128      0.0534
    134  CG        26.7370  -11.0120  -46.3090 C.ar  128  PHE128     -0.0203
    135  CD1       28.0210  -11.0160  -46.8650 C.ar  128  PHE128     -0.0042
    136  CD2       25.8830  -12.0810  -46.5870 C.ar  128  PHE128     -0.0042
    137  CE1       28.4490  -12.0710  -47.6830 C.ar  128  PHE128     -0.0003
    138  CE2       26.2970  -13.1350  -47.4050 C.ar  128  PHE128     -0.0003
    139  CZ        27.5830  -13.1320  -47.9540 C.ar  128  PHE128     -0.0000
    140  N         23.3250   -8.2580  -39.0460 N.3   132  PHE132     -0.1227
    141  CA        23.6740   -9.6720  -39.0580 C.3   132  PHE132      0.1736
    142  C         25.1680   -9.8760  -38.8290 C.2   132  PHE132      0.2595
    143  O         25.5650  -10.6800  -38.0050 O.2   132  PHE132     -0.2718
    144  CB        23.2510  -10.2490  -40.3950 C.3   132  PHE132      0.0547
    145  CG        23.8350  -11.5830  -40.6980 C.ar  132  PHE132     -0.0202
    146  CD1       23.5000  -12.6850  -39.9320 C.ar  132  PHE132     -0.0042
    147  CD2       24.6910  -11.7520  -41.7920 C.ar  132  PHE132     -0.0042
    148  CE1       24.0010  -13.9340  -40.2470 C.ar  132  PHE132     -0.0003
    149  CE2       25.1920  -12.9880  -42.1090 C.ar  132  PHE132     -0.0003
    150  CZ        24.8450  -14.0810  -41.3340 C.ar  132  PHE132     -0.0000
    151  N         25.9910   -9.1330  -39.5600 N.am  133  LEU133     -0.1980
    152  CA        27.4320   -9.2480  -39.4210 C.3   133  LEU133      0.1596
    153  C         27.8350   -8.8710  -38.0180 C.2   133  LEU133      0.2287
    154  O         28.7220   -9.4830  -37.4320 O.2   133  LEU133     -0.2864
    155  CB        28.1680   -8.3250  -40.4020 C.3   133  LEU133      0.0297
    156  CG        28.4410   -8.7560  -41.8540 C.3   133  LEU133      0.0022
    157  CD1       28.8050  -10.2250  -41.8930 C.3   133  LEU133      0.0001
    158  CD2       27.2330   -8.5310  -42.7070 C.3   133  LEU133      0.0001
    159  N         27.5110  -11.5030  -35.6800 N.3   136  ILE136     -0.1245
    160  CA        28.5590  -12.4850  -35.9060 C.3   136  ILE136      0.1561
    161  C         29.8670  -12.0300  -35.2480 C.2   136  ILE136      0.2260
    162  O         30.5290  -12.8290  -34.5760 O.2   136  ILE136     -0.2867
    163  CB        28.7540  -12.7390  -37.4140 C.3   136  ILE136      0.0252
    164  CG1       27.6130  -13.6230  -37.9220 C.3   136  ILE136      0.0019
    165  CG2       30.0790  -13.3990  -37.6910 C.3   136  ILE136      0.0019
    166  CD1       27.8080  -14.1340  -39.3120 C.3   136  ILE136      0.0001
    167  N         21.1380  -17.0410  -41.4820 N.3   220  TYR220     -0.1241
    168  CA        21.6650  -17.4390  -42.7800 C.3   220  TYR220      0.1605
    169  C         20.5390  -17.6740  -43.7740 C.2   220  TYR220      0.2264
    170  O         20.4330  -16.9790  -44.7720 O.2   220  TYR220     -0.2867
    171  CB        22.4900  -18.7260  -42.6650 C.3   220  TYR220      0.0534
    172  CG        23.9820  -18.5170  -42.6450 C.ar  220  TYR220     -0.0201
    173  CD1       24.8090  -19.1570  -43.5690 C.ar  220  TYR220     -0.0009
    174  CD2       24.5710  -17.7150  -41.6790 C.ar  220  TYR220     -0.0009
    175  CE1       26.1870  -19.0030  -43.5200 C.ar  220  TYR220      0.0417
    176  CE2       25.9540  -17.5500  -41.6200 C.ar  220  TYR220      0.0417
    177  CZ        26.7580  -18.1950  -42.5380 C.ar  220  TYR220      0.1957
    178  OH        28.1320  -18.0390  -42.4530 O.3   220  TYR220     -0.2866
    179  N         19.3980  -14.4910  -45.0040 N.3   223  GLU223     -0.1231
    180  CA        20.2630  -13.7090  -45.8720 C.3   223  GLU223      0.1699
    181  C         20.3200  -14.2910  -47.2770 C.2   223  GLU223      0.2592
    182  O         20.2450  -13.5500  -48.2420 O.2   223  GLU223     -0.2718
    183  CB        21.6780  -13.6460  -45.3170 C.3   223  GLU223      0.0402
    184  CG        21.8750  -12.8070  -44.0740 C.3   223  GLU223      0.1161
    185  CD        21.8250  -11.3230  -44.3530 C.2   223  GLU223      0.3649
    186  OE1       20.7190  -10.7620  -44.4160 O.co2 223  GLU223     -0.2457
    187  OE2       22.8970  -10.7080  -44.5180 O.co2 223  GLU223     -0.2457
    188  N         20.4560  -15.6080  -47.3980 N.am  224  LEU224     -0.1980
    189  CA        20.5170  -16.2380  -48.7140 C.3   224  LEU224      0.1596
    190  C         19.4160  -15.7390  -49.6580 C.2   224  LEU224      0.2287
    191  O         19.6790  -15.4420  -50.8250 O.2   224  LEU224     -0.2864
    192  CB        20.4150  -17.7640  -48.6110 C.3   224  LEU224      0.0297
    193  CG        21.6050  -18.5880  -48.1360 C.3   224  LEU224      0.0022
    194  CD1       21.2910  -20.0450  -48.4220 C.3   224  LEU224      0.0001
    195  CD2       22.8820  -18.1880  -48.8480 C.3   224  LEU224      0.0001
    196  N         23.7500  -15.2580  -54.7270 N.3   230  LEU230     -0.1245
    197  CA        24.3080  -16.2000  -53.7530 C.3   230  LEU230      0.1561
    198  C         23.7600  -17.6080  -53.8890 C.2   230  LEU230      0.2260
    199  O         24.4880  -18.5340  -54.2270 O.2   230  LEU230     -0.2867
    200  CB        24.0350  -15.7000  -52.3380 C.3   230  LEU230      0.0270
    201  CG        25.1090  -16.0490  -51.3290 C.3   230  LEU230      0.0019
    202  CD1       26.4520  -15.6010  -51.8800 C.3   230  LEU230      0.0001
    203  CD2       24.8120  -15.3660  -50.0200 C.3   230  LEU230      0.0001
    204  N         26.1670  -20.8070  -54.6450 N.3   234  THR234     -0.1218
    205  CA        26.4740  -21.9110  -53.7460 C.3   234  THR234      0.1862
    206  C         25.1950  -22.6880  -53.4520 C.2   234  THR234      0.2287
    207  O         24.3820  -22.2820  -52.6200 O.2   234  THR234     -0.2866
    208  CB        27.1180  -21.3930  -52.4230 C.3   234  THR234      0.1770
    209  OG1       27.1480  -22.4510  -51.4550 O.3   234  THR234     -0.2211
    210  CG2       26.3440  -20.2290  -51.8550 C.3   234  THR234      0.0375
    211  N         25.2440  -24.5580  -49.7140 N.3   237  LEU237     -0.1245
    212  CA        24.8560  -23.7950  -48.5470 C.3   237  LEU237      0.1561
    213  C         23.3700  -23.5880  -48.5720 C.2   237  LEU237      0.2260
    214  O         22.7410  -23.5130  -47.5420 O.2   237  LEU237     -0.2867
    215  CB        25.5780  -22.4560  -48.4930 C.3   237  LEU237      0.0270
    216  CG        26.4110  -22.3230  -47.2130 C.3   237  LEU237      0.0019
    217  CD1       26.9630  -20.9240  -47.0850 C.3   237  LEU237      0.0001
    218  CD2       25.5530  -22.6430  -46.0070 C.3   237  LEU237      0.0001
@<TRIPOS>BOND
     1   196   197    1
     2   204   205    1
     3   199   198    2
     4   198   197    1
     5   197   200    1
     6   205   206    1
     7   205   208    1
     8   206   207    2
     9    27    24    1
    10   208   210    1
    11   208   209    1
    12   200   201    1
    13   202   201    1
    14    25    24    1
    15    25    26    2
    16    24    23    1
    17   201   203    1
    18    23    14   am
    19    12    13    1
    20     4     3    2
    21   191   190    2
    22    28    29    1
    23     3     2    1
    24    14    13    1
    25    14    15    2
    26    13    16    1
    27   211   212    1
    28   190   189    1
    29    16    17    1
    30    29    32    1
    31    29    30    1
    32    19    17   ar
    33    19    21   ar
    34    34    32    1
    35     2     1    1
    36     2     5    1
    37   195   193    1
    38   189   192    1
    39   189   188    1
    40   192   193    1
    41   213   212    1
    42   213   214    2
    43   212   215    1
    44    17    18   ar
    45   215   216    1
    46   194   193    1
    47    21    22   ar
    48    32    33    1
    49    36    30   am
    50    36    37    1
    51    33    35    1
    52    30    31    2
    53   182   181    2
    54   139   137   ar
    55   139   138   ar
    56    38    37    1
    57    38    39    2
    58     5     6    1
    59   106   105    1
    60   137   135   ar
    61    37    40    1
    62   138   136   ar
    63   188   181   am
    64   129   130    1
    65    40    41    1
    66    18    20   ar
    67   181   180    1
    68   216   217    1
    69   216   218    1
    70    22    20   ar
    71   104   105   ar
    72   104   102   ar
    73     7     6   ar
    74     7     9   ar
    75    44    45    1
    76   135   134   ar
    77     6     8   ar
    78   127   126    2
    79   105   103   ar
    80   136   134   ar
    81   134   133    1
    82   130   133    1
    83   130   131    1
    84    41    42    2
    85    41    43   am
    86   126   125    1
    87     9    11   ar
    88   102   100   ar
    89   180   183    1
    90   180   179    1
    91     8    10   ar
    92   124   125    1
    93   125   128    1
    94   103   101   ar
    95    45    46    1
    96    45    48    1
    97   183   184    1
    98   132   131    2
    99    46    47    2
   100    11    10   ar
   101    92    91    2
   102   100   101   ar
   103   100    99    1
   104   170   169    2
   105    48    49    1
   106    49    50    1
   107   187   185   ar
   108    51    50    1
   109   186   185   ar
   110   185   184    1
   111   169   168    1
   112    91    90    1
   113    96    99    1
   114    96    95    1
   115    96    97    1
   116   173   175   ar
   117   173   172   ar
   118   175   177   ar
   119    93    90    1
   120    93    94    1
   121   119   118    2
   122   110   109    2
   123   107    97   am
   124   107   108    1
   125   113   114    1
   126   113   112    1
   127   168   171    1
   128   168   167    1
   129   114   115    1
   130    90    89    1
   131   158   156    1
   132   171   172    1
   133    58    57    1
   134   111   112    1
   135   111   108    1
   136   172   174   ar
   137    97    98    2
   138   118   117    1
   139   177   178    1
   140   177   176   ar
   141   109   108    1
   142   109   116   am
   143   149   147   ar
   144   149   150   ar
   145   157   156    1
   146   156   155    1
   147   147   145   ar
   148   174   176   ar
   149   117   116    1
   150   117   120    1
   151    81    80    2
   152   150   148   ar
   153    57    59    1
   154    57    56    1
   155   145   144    1
   156   145   146   ar
   157   155   152    1
   158   144   141    1
   159    76    75    1
   160    56    53    1
   161    80    79    1
   162   148   146   ar
   163    82    79    1
   164    82    83    1
   165   120   121    1
   166    77    75    1
   167   151   152    1
   168   151   142   am
   169    79    78    1
   170   152   153    1
   171    83    84   ar
   172    83    85   ar
   173   166   164    1
   174    75    74    1
   175    69    68   ar
   176    69    67   ar
   177    84    86   ar
   178    68    66   ar
   179    53    54    1
   180    53    52    1
   181   141   140    1
   182   141   142    1
   183   142   143    2
   184   121   122    1
   185   123   122    1
   186    85    87   ar
   187    74    71    1
   188    86    88   ar
   189    54    55    2
   190    54    60   am
   191    67    65   ar
   192    66    65   ar
   193   153   154    2
   194   164   163    1
   195    71    70    1
   196    71    72    1
   197    87    88   ar
   198   165   163    1
   199    60    61    1
   200    65    64    1
   201   163   160    1
   202    73    72    2
   203    61    64    1
   204    61    62    1
   205   160   159    1
   206   160   161    1
   207    62    63    2
   208   161   162    2
