@<TRIPOS>MOLECULE
tmp/1xltH02.pdb
 205 194 0 0 0
SMALL
GASTEIGER

@<TRIPOS>ATOM
      1  N         79.7850    4.2570   39.4910 N.3   127  ARG127     -0.1231
      2  CA        81.0330    3.9970   40.2410 C.3   127  ARG127      0.1694
      3  C         80.6570    3.6170   41.6970 C.2   127  ARG127      0.2592
      4  O         80.0390    4.3590   42.4350 O.2   127  ARG127     -0.2718
      5  CB        81.9620    5.1770   40.2670 C.3   127  ARG127      0.0321
      6  CG        82.3810    5.8320   38.9850 C.3   127  ARG127      0.0489
      7  CD        83.5340    6.7680   39.1980 C.3   127  ARG127      0.2205
      8  NE        83.2780    8.1770   39.0680 N.pl3 127  ARG127     -0.0865
      9  CZ        84.2760    9.0800   39.1550 C.cat 127  ARG127      0.5346
     10  NH1       84.0430   10.3680   39.0640 N.pl3 127  ARG127      0.1354
     11  NH2       85.5120    8.6170   39.3390 N.pl3 127  ARG127      0.1354
     12  N         80.8370    2.2940   41.8440 N.am  128  ILE128     -0.1966
     13  CA        80.2660    1.5010   42.9470 C.3   128  ILE128      0.1727
     14  C         81.1040    0.3350   43.3490 C.2   128  ILE128      0.2616
     15  O         82.3580    0.4480   43.2060 O.2   128  ILE128     -0.2715
     16  CB        78.8130    1.1820   42.5780 C.3   128  ILE128      0.0290
     17  CG1       78.6440    0.1900   41.4670 C.3   128  ILE128      0.0022
     18  CG2       77.8410    2.3010   42.6440 C.3   128  ILE128      0.0023
     19  CD1       77.2590   -0.2930   41.1480 C.3   128  ILE128      0.0001
     20  N         80.6100   -0.8000   43.7510 N.am  129  SER129     -0.1950
     21  CA        81.1910   -2.0720   44.0190 C.3   129  SER129      0.1924
     22  C         80.6360   -3.1470   43.0600 C.2   129  SER129      0.2314
     23  O         81.4040   -3.8800   42.4490 O.2   129  SER129     -0.2863
     24  CB        81.0000   -2.5060   45.4660 C.3   129  SER129      0.2116
     25  OG        81.6000   -1.5610   46.3480 O.3   129  SER129     -0.2180
     26  N         81.6670   -2.4020   39.7950 N.3   132  GLN132     -0.1196
     27  CA        83.1360   -2.4340   39.8190 C.3   132  GLN132      0.1782
     28  C         83.6760   -3.3970   38.7360 C.2   132  GLN132      0.2306
     29  O         84.2110   -2.8470   37.7330 O.2   132  GLN132     -0.2863
     30  CB        83.7120   -2.7270   41.1760 C.2   132  GLN132      0.0051
     31  CG        83.3900   -1.7250   42.2650 C.2   132  GLN132      0.0584
     32  CD        84.2440   -1.8180   43.4970 C.2   132  GLN132      0.2840
     33  OE1       84.9400   -0.8610   43.8760 O.2   132  GLN132     -0.2667
     34  NE2       84.1990   -2.9380   44.2170 N.am  132  GLN132     -0.0837
     35  N         83.3500   -1.9530   34.9140 N.3   135  ASP135     -0.1239
     36  CA        83.6320   -0.5570   34.5900 C.3   135  ASP135      0.1674
     37  C         84.7450   -0.4240   33.5500 C.2   135  ASP135      0.2266
     38  O         85.9190   -0.5960   33.8740 O.2   135  ASP135     -0.2867
     39  CB        84.0240    0.1860   35.8750 C.3   135  ASP135      0.1410
     40  CG        84.5280    1.6040   35.6170 C.2   135  ASP135      0.3668
     41  OD1       84.3990    2.4560   36.5330 O.co2 135  ASP135     -0.2456
     42  OD2       85.0670    1.8650   34.5130 O.co2 135  ASP135     -0.2456
     43  N         85.8490    2.3300   31.9780 N.3   137  LEU137     -0.1231
     44  CA        86.6500    3.5010   32.3360 C.3   137  LEU137      0.1693
     45  C         87.8440    3.2000   33.2350 C.2   137  LEU137      0.2592
     46  O         88.9750    3.6030   32.9440 O.2   137  LEU137     -0.2718
     47  CB        85.7630    4.5480   33.0160 C.3   137  LEU137      0.0284
     48  CG        85.7300    5.9250   32.3480 C.3   137  LEU137      0.0019
     49  CD1       85.4090    5.7780   30.8690 C.3   137  LEU137      0.0001
     50  CD2       84.6970    6.7950   33.0290 C.3   137  LEU137      0.0001
     51  N         87.5740    2.4920   34.3260 N.am  138  SER138     -0.1952
     52  CA        88.5910    2.1200   35.3000 C.3   138  SER138      0.1924
     53  C         89.7210    1.2840   34.6770 C.2   138  SER138      0.2314
     54  O         90.8830    1.6910   34.6850 O.2   138  SER138     -0.2863
     55  CB        87.9320    1.3430   36.4410 C.3   138  SER138      0.2116
     56  OG        88.7140    1.3970   37.6160 O.3   138  SER138     -0.2180
     57  N         96.8850   14.2160   39.8650 N.3   179  GLY179     -0.1210
     58  CA        95.6310   13.5180   39.6910 C.3   179  GLY179      0.1956
     59  C         95.6030   12.1000   40.2190 C.2   179  GLY179      0.2612
     60  O         95.3970   11.1430   39.4650 O.2   179  GLY179     -0.2717
     61  N         95.7920   11.9710   41.5250 N.am  180  VAL180     -0.1965
     62  CA        95.7810   10.6820   42.1760 C.3   180  VAL180      0.1727
     63  C         94.4370    9.9870   42.0280 C.2   180  VAL180      0.2617
     64  O         93.7210    9.7870   43.0050 O.2   180  VAL180     -0.2715
     65  CB        96.0940   10.8370   43.6490 C.3   180  VAL180      0.0290
     66  CG1       96.1360    9.4900   44.3140 C.3   180  VAL180      0.0023
     67  CG2       97.4260   11.5440   43.8070 C.3   180  VAL180      0.0023
     68  N         94.0980    9.6380   40.7920 N.am  181  GLY181     -0.1940
     69  CA        92.8600    8.9390   40.5220 C.3   181  GLY181      0.2014
     70  C         93.2060    7.4710   40.3730 C.2   181  GLY181      0.2639
     71  O         93.9610    6.9370   41.1840 O.2   181  GLY181     -0.2714
     72  N         92.6630    6.8010   39.3610 N.am  182  VAL182     -0.1963
     73  CA        93.0140    5.4040   39.1680 C.3   182  VAL182      0.1727
     74  C         94.3220    5.4320   38.3980 C.2   182  VAL182      0.2616
     75  O         95.3380    4.9270   38.8660 O.2   182  VAL182     -0.2715
     76  CB        91.9300    4.6140   38.3750 C.3   182  VAL182      0.0290
     77  CG1       91.7040    5.2170   36.9800 C.3   182  VAL182      0.0023
     78  CG2       92.3490    3.1630   38.2620 C.3   182  VAL182      0.0023
     79  N         94.2910    6.0730   37.2330 N.am  183  ALA183     -0.1977
     80  CA        95.4540    6.2060   36.3740 C.3   183  ALA183      0.1597
     81  C         96.5840    6.8410   37.1620 C.2   183  ALA183      0.2287
     82  O         97.6940    6.3210   37.2130 O.2   183  ALA183     -0.2864
     83  CB        95.1080    7.0680   35.1780 C.3   183  ALA183      0.0319
     84  N         97.1190    6.9180   40.1970 N.3   185  LEU185     -0.1245
     85  CA        97.6090    6.0090   41.2320 C.3   185  LEU185      0.1561
     86  C         98.4920    4.9040   40.6790 C.2   185  LEU185      0.2260
     87  O         99.4030    4.4430   41.3560 O.2   185  LEU185     -0.2867
     88  CB        96.4380    5.4010   41.9970 C.3   185  LEU185      0.0270
     89  CG        95.9910    6.1680   43.2350 C.3   185  LEU185      0.0019
     90  CD1       94.6310    5.6630   43.6340 C.3   185  LEU185      0.0001
     91  CD2       96.9780    5.9860   44.3620 C.3   185  LEU185      0.0001
     92  N        100.4070   15.2780   44.0990 N.3   201  THR201     -0.1203
     93  CA        99.4820   16.2100   44.7290 C.3   201  THR201      0.1994
     94  C         98.0550   15.8690   44.3410 C.2   201  THR201      0.2618
     95  O         97.7860   15.4190   43.2250 O.2   201  THR201     -0.2717
     96  CB        99.7340   17.6770   44.3170 C.3   201  THR201      0.1784
     97  OG1       98.9690   18.5420   45.1710 O.3   201  THR201     -0.2211
     98  CG2       99.3050   17.9140   42.8680 C.3   201  THR201      0.0376
     99  N         97.1490   16.1260   45.2800 N.am  202  ASP202     -0.1959
    100  CA        95.7240   15.8510   45.1240 C.3   202  ASP202      0.1840
    101  C         94.9300   16.7020   46.1280 C.2   202  ASP202      0.2622
    102  O         95.4540   17.0800   47.1820 O.2   202  ASP202     -0.2715
    103  CB        95.4640   14.3580   45.3890 C.3   202  ASP202      0.1450
    104  CG        94.0530   13.9240   45.0270 C.2   202  ASP202      0.3671
    105  OD1       93.0820   14.5150   45.5500 O.co2 202  ASP202     -0.2456
    106  OD2       93.9180   12.9820   44.2150 O.co2 202  ASP202     -0.2456
    107  N         93.6730   16.9970   45.8010 N.am  203  VAL203     -0.1963
    108  CA        92.8140   17.7800   46.6780 C.3   203  VAL203      0.1727
    109  C         92.2500   16.9380   47.8240 C.2   203  VAL203      0.2616
    110  O         92.3840   17.3030   48.9910 O.2   203  VAL203     -0.2715
    111  CB        91.6360   18.3860   45.9080 C.3   203  VAL203      0.0290
    112  CG1       92.1100   19.5330   45.0530 C.3   203  VAL203      0.0023
    113  CG2       90.9670   17.3130   45.0610 C.3   203  VAL203      0.0023
    114  N         91.6340   15.8100   47.4870 N.am  204  ARG204     -0.1977
    115  CA        91.0260   14.9190   48.4770 C.3   204  ARG204      0.1597
    116  C         92.0110   14.3810   49.5260 C.2   204  ARG204      0.2287
    117  O         92.8050   13.4910   49.2440 O.2   204  ARG204     -0.2864
    118  CB        90.3470   13.7650   47.7410 C.3   204  ARG204      0.0334
    119  CG        89.8620   14.1710   46.3500 C.3   204  ARG204      0.0492
    120  CD        89.2060   13.0270   45.5890 C.3   204  ARG204      0.2205
    121  NE        88.9370   13.3990   44.1980 N.pl3 204  ARG204     -0.0865
    122  CZ        88.1580   12.7130   43.3580 C.cat 204  ARG204      0.5346
    123  NH1       87.5440   11.5990   43.7550 N.pl3 204  ARG204      0.1354
    124  NH2       88.0030   13.1370   42.1060 N.pl3 204  ARG204      0.1354
    125  N         93.3660   11.0570   49.7530 N.3   207  THR207     -0.1218
    126  CA        94.4560   10.6980   48.8710 C.3   207  THR207      0.1862
    127  C         95.8200   10.6820   49.5680 C.2   207  THR207      0.2287
    128  O         96.6300    9.7960   49.3180 O.2   207  THR207     -0.2866
    129  CB        94.4750   11.6610   47.6940 C.3   207  THR207      0.1770
    130  OG1       93.3230   11.4140   46.8800 O.3   207  THR207     -0.2211
    131  CG2       95.7330   11.4920   46.8820 C.3   207  THR207      0.0375
    132  N         96.3730    7.3570   50.2510 N.3   210  GLN210     -0.1245
    133  CA        96.5690    6.5720   49.0340 C.3   210  GLN210      0.1566
    134  C         97.9430    6.8160   48.4070 C.2   210  GLN210      0.2260
    135  O         98.6670    5.8760   48.0930 O.2   210  GLN210     -0.2867
    136  CB        95.4590    6.8850   48.0340 C.3   210  GLN210      0.0367
    137  CG        94.1580    6.2490   48.4420 C.3   210  GLN210      0.0905
    138  CD        92.9780    6.7030   47.6200 C.2   210  GLN210      0.2608
    139  OE1       92.9370    6.5310   46.4050 O.2   210  GLN210     -0.2717
    140  NE2       91.9970    7.2840   48.2890 N.am  210  GLN210     -0.0878
    141  N         94.1890   27.8400   48.6100 N.3   223  PHE223     -0.1227
    142  CA        94.5240   26.4900   48.1690 C.3   223  PHE223      0.1736
    143  C         95.4330   26.6390   46.9460 C.2   223  PHE223      0.2595
    144  O         96.6400   26.4030   47.0290 O.2   223  PHE223     -0.2718
    145  CB        93.2600   25.7010   47.8030 C.3   223  PHE223      0.0547
    146  CG        93.5260   24.2550   47.4720 C.ar  223  PHE223     -0.0202
    147  CD1       93.5700   23.8240   46.1470 C.ar  223  PHE223     -0.0042
    148  CD2       93.7690   23.3290   48.4860 C.ar  223  PHE223     -0.0042
    149  CE1       93.8550   22.4890   45.8370 C.ar  223  PHE223     -0.0003
    150  CE2       94.0540   21.9950   48.1890 C.ar  223  PHE223     -0.0003
    151  CZ        94.0980   21.5740   46.8630 C.ar  223  PHE223     -0.0000
    152  N         94.8600   27.0470   45.8170 N.am  224  ARG224     -0.1980
    153  CA        95.6540   27.2420   44.6120 C.3   224  ARG224      0.1597
    154  C         96.6710   28.3720   44.7960 C.2   224  ARG224      0.2287
    155  O         96.9490   29.1210   43.8560 O.2   224  ARG224     -0.2864
    156  CB        94.7450   27.5470   43.4160 C.3   224  ARG224      0.0334
    157  CG        94.3410   26.3210   42.6060 C.3   224  ARG224      0.0492
    158  CD        95.5170   25.7780   41.7750 C.3   224  ARG224      0.2205
    159  NE        95.9650   24.4400   42.1850 N.pl3 224  ARG224     -0.0865
    160  CZ        95.2820   23.3070   41.9980 C.cat 224  ARG224      0.5346
    161  NH1       94.0940   23.3200   41.3970 N.pl3 224  ARG224      0.1354
    162  NH2       95.7920   22.1500   42.4130 N.pl3 224  ARG224      0.1354
    163  N         96.9080   13.7500   35.1110 N.3   244  THR244     -0.1203
    164  CA        95.7060   12.9660   34.8850 C.3   244  THR244      0.1994
    165  C         94.5450   13.8590   35.2670 C.2   244  THR244      0.2618
    166  O         93.5480   13.9220   34.5500 O.2   244  THR244     -0.2717
    167  CB        95.6660   11.7170   35.7800 C.3   244  THR244      0.1784
    168  OG1       95.5570   12.1160   37.1500 O.3   244  THR244     -0.2211
    169  CG2       96.9300   10.8960   35.6020 C.3   244  THR244      0.0376
    170  N         94.7110   14.5530   36.4000 N.am  245  ALA245     -0.1965
    171  CA        93.7100   15.4710   36.9660 C.3   245  ALA245      0.1728
    172  C         92.6680   15.8560   35.9290 C.2   245  ALA245      0.2616
    173  O         92.9890   16.4940   34.9170 O.2   245  ALA245     -0.2715
    174  CB        94.3940   16.7250   37.5260 C.3   245  ALA245      0.0334
    175  N         91.4170   15.4730   36.1860 N.am  246  LEU246     -0.1963
    176  CA        90.3440   15.7470   35.2320 C.3   246  LEU246      0.1728
    177  C         88.9400   16.0580   35.8000 C.2   246  LEU246      0.2616
    178  O         88.6880   15.9700   37.0190 O.2   246  LEU246     -0.2715
    179  CB        90.2390   14.5580   34.2600 C.3   246  LEU246      0.0311
    180  CG        89.9360   14.8590   32.7950 C.3   246  LEU246      0.0022
    181  CD1       91.1300   15.5630   32.1930 C.3   246  LEU246      0.0001
    182  CD2       89.6470   13.5730   32.0390 C.3   246  LEU246      0.0001
    183  N         88.0610   16.4380   34.8640 N.am  247  ILE247     -0.1977
    184  CA        86.6350   16.7480   35.0580 C.3   247  ILE247      0.1596
    185  C         86.0690   16.7610   33.6200 C.2   247  ILE247      0.2287
    186  O         86.4190   17.6310   32.8110 O.2   247  ILE247     -0.2864
    187  CB        86.3960   18.1150   35.7820 C.3   247  ILE247      0.0276
    188  CG1       86.8590   18.0070   37.2480 C.3   247  ILE247      0.0022
    189  CG2       84.9020   18.4730   35.7430 C.3   247  ILE247      0.0022
    190  CD1       86.8080   19.2930   38.0590 C.3   247  ILE247      0.0001
    191  N         91.1910   21.0120   34.3740 N.3   253  PRO253     -0.2116
    192  CA        91.8770   21.9310   35.2900 C.3   253  PRO253      0.1372
    193  C         93.3750   22.0810   35.1070 C.2   253  PRO253      0.2244
    194  O         94.1540   21.2420   35.5630 O.2   253  PRO253     -0.2868
    195  CB        91.5330   21.3670   36.6670 C.3   253  PRO253      0.0268
    196  CG        91.5030   19.9230   36.4060 C.3   253  PRO253      0.0207
    197  CD        90.6950   19.8460   35.1250 C.3   253  PRO253      0.0892
    198  N         96.9380   22.5980   35.6180 N.3   255  LEU255     -0.1245
    199  CA        97.8350   22.5240   36.7690 C.3   255  LEU255      0.1561
    200  C         99.2690   22.9650   36.4620 C.2   255  LEU255      0.2260
    201  O        100.0820   23.1290   37.3790 O.2   255  LEU255     -0.2867
    202  CB        97.8440   21.1040   37.3530 C.3   255  LEU255      0.0270
    203  CG        96.7580   20.7560   38.3850 C.3   255  LEU255      0.0019
    204  CD1       96.8800   19.3010   38.7880 C.3   255  LEU255      0.0001
    205  CD2       96.9020   21.6380   39.6120 C.3   255  LEU255      0.0001
@<TRIPOS>BOND
     1    49    48    1
     2    43    44    1
     3   182   180    1
     4   181   180    1
     5    44    47    1
     6    44    45    1
     7    48    47    1
     8    48    50    1
     9   180   179    1
    10   186   185    2
    11    46    45    2
    12    45    51   am
    13    37    38    2
    14    37    36    1
    15   185   184    1
    16   179   176    1
    17    51    52    1
    18   191   197    1
    19   191   192    1
    20    42    40   ar
    21   166   165    2
    22    36    35    1
    23    36    39    1
    24    53    54    2
    25    53    52    1
    26   183   184    1
    27   183   177   am
    28   164   163    1
    29   164   165    1
    30   164   167    1
    31   173   172    2
    32   184   187    1
    33   193   192    1
    34   193   194    2
    35   197   196    1
    36    83    80    1
    37   176   177    1
    38   176   175    1
    39   165   170   am
    40   192   195    1
    41    52    55    1
    42   169   167    1
    43    40    39    1
    44    40    41   ar
    45   198   199    1
    46   189   187    1
    47   167   168    1
    48   187   188    1
    49   177   178    2
    50   172   175   am
    51   172   171    1
    52    80    81    1
    53    80    79    1
    54   170   171    1
    55   196   195    1
    56    55    56    1
    57   200   199    1
    58   200   201    2
    59   199   202    1
    60   171   174    1
    61    77    76    1
    62    81    82    2
    63    79    74   am
    64   188   190    1
    65   202   203    1
    66    29    28    2
    67    78    76    1
    68    76    73    1
    69   203   204    1
    70   203   205    1
    71    74    75    2
    72    74    73    1
    73    28    27    1
    74     6     7    1
    75     6     5    1
    76    10     9    1
    77     8     9    2
    78     8     7    1
    79     9    11    1
    80    73    72    1
    81    72    70   am
    82    60    59    2
    83     1     2    1
    84    58    57    1
    85    58    59    1
    86    26    27    1
    87    27    30    1
    88    84    85    1
    89    59    61   am
    90     2     5    1
    91     2     3    1
    92    70    69    1
    93    70    71    2
    94    69    68    1
    95    86    85    1
    96    86    87    2
    97    68    63   am
    98    19    17    1
    99    30    31    2
   100    85    88    1
   101   161   160    1
   102    17    16    1
   103    61    62    1
   104     3    12   am
   105     3     4    2
   106   158   159    1
   107   158   157    1
   108    12    13    1
   109    88    89    1
   110   160   159    2
   111   160   162    1
   112    63    62    1
   113    63    64    2
   114   124   122    1
   115    62    65    1
   116    31    32    1
   117    23    22    2
   118    16    18    1
   119    16    13    1
   120   157   156    1
   121    98    96    1
   122    13    14    1
   123    22    21    1
   124    15    14    2
   125    95    94    2
   126    89    90    1
   127    89    91    1
   128    14    20   am
   129   122   123    1
   130   122   121    2
   131   156   153    1
   132    32    33    2
   133    32    34   am
   134    65    67    1
   135    65    66    1
   136    20    21    1
   137   155   154    2
   138    21    24    1
   139    92    93    1
   140   121   120    1
   141   106   104   ar
   142    96    93    1
   143    96    97    1
   144    94    93    1
   145    94    99   am
   146   153   154    1
   147   153   152    1
   148   104   103    1
   149   104   105   ar
   150   112   111    1
   151   113   111    1
   152   100    99    1
   153   100   103    1
   154   100   101    1
   155    24    25    1
   156   120   119    1
   157   107   101   am
   158   107   108    1
   159   152   143   am
   160   149   147   ar
   161   149   151   ar
   162   111   108    1
   163   101   102    2
   164   147   146   ar
   165   119   118    1
   166   139   138    2
   167   108   109    1
   168   151   150   ar
   169   130   129    1
   170   131   129    1
   171   143   144    2
   172   143   142    1
   173   146   145    1
   174   146   148   ar
   175   114   109   am
   176   114   115    1
   177   138   140   am
   178   138   137    1
   179   129   126    1
   180   118   115    1
   181   145   142    1
   182   109   110    2
   183   136   137    1
   184   136   133    1
   185   135   134    2
   186   142   141    1
   187   150   148   ar
   188   134   133    1
   189   115   116    1
   190   126   127    1
   191   126   125    1
   192   133   132    1
   193   117   116    2
   194   128   127    2
