@<TRIPOS>MOLECULE
tmp/1xluA01.pdb
 72 71 0 0 0
SMALL
GASTEIGER

@<TRIPOS>ATOM
      1  N         59.1480  128.4600   13.7820 N.3   330  ALA330     -0.1231
      2  CA        59.4210  128.6240   12.3540 C.3   330  ALA330      0.1679
      3  C         58.4900  129.6510   11.6900 C.2   330  ALA330      0.2434
      4  O         57.2530  129.5460   11.8250 O.2   330  ALA330     -0.2733
      5  CB        59.3500  127.2630   11.6230 C.3   330  ALA330      0.0304
      6  N         59.0720  130.6380   10.9790 N.am  331  PRO331     -0.2718
      7  CA        58.2870  131.7020   10.3220 C.3   331  PRO331      0.1535
      8  C         57.3170  131.1990    9.2780 C.2   331  PRO331      0.2599
      9  O         57.6530  130.3290    8.4680 O.2   331  PRO331     -0.2715
     10  CB        59.3580  132.6080    9.6830 C.3   331  PRO331      0.0310
     11  CG        60.5840  132.3570   10.5190 C.3   331  PRO331      0.0237
     12  CD        60.5270  130.8590   10.8150 C.3   331  PRO331      0.0939
     13  N         56.0990  131.7330    9.3270 N.am  332  GLY332     -0.1941
     14  CA        55.0750  131.4180    8.3640 C.3   332  GLY332      0.2014
     15  C         54.2460  130.2280    8.7690 C.2   332  GLY332      0.2639
     16  O         53.3050  129.8730    8.0570 O.2   332  GLY332     -0.2714
     17  N         54.5840  129.6200    9.9090 N.am  333  PHE333     -0.1959
     18  CA        53.8730  128.4270   10.3820 C.3   333  PHE333      0.1771
     19  C         52.7930  128.7770   11.4060 C.2   333  PHE333      0.2620
     20  O         52.9470  129.7350   12.1690 O.2   333  PHE333     -0.2715
     21  CB        54.8460  127.3550   10.9380 C.3   333  PHE333      0.0574
     22  CG        55.5830  126.6140    9.8570 C.ar  333  PHE333     -0.0200
     23  CD1       56.7930  127.0930    9.3620 C.ar  333  PHE333     -0.0042
     24  CD2       55.0310  125.4810    9.2770 C.ar  333  PHE333     -0.0042
     25  CE1       57.4480  126.4220    8.3180 C.ar  333  PHE333     -0.0003
     26  CE2       55.6910  124.8240    8.2160 C.ar  333  PHE333     -0.0003
     27  CZ        56.9060  125.2910    7.7560 C.ar  333  PHE333     -0.0000
     28  N         51.7140  128.0060   11.4270 N.am  334  SER334     -0.1950
     29  CA        50.7010  128.2140   12.4480 C.3   334  SER334      0.1924
     30  C         49.7900  127.0290   12.5080 C.2   334  SER334      0.2314
     31  O         49.4270  126.4780   11.4780 O.2   334  SER334     -0.2863
     32  CB        49.9130  129.5180   12.1700 C.3   334  SER334      0.2116
     33  OG        48.7120  129.6050   12.9120 O.3   334  SER334     -0.2180
     34  N         46.3260  127.8060   10.3350 N.3   337  ASN337     -0.1225
     35  CA        46.2350  127.9770    8.8720 C.3   337  ASN337      0.1785
     36  C         47.1720  126.9810    8.2120 C.2   337  ASN337      0.2597
     37  O         47.9300  126.2750    8.8990 O.2   337  ASN337     -0.2718
     38  CB        46.5570  129.4110    8.4160 C.3   337  ASN337      0.1169
     39  CG        48.0020  129.7930    8.6470 C.2   337  ASN337      0.2627
     40  OD1       48.9050  128.9470    8.5910 O.2   337  ASN337     -0.2716
     41  ND2       48.2200  131.0830    8.9460 N.am  337  ASN337     -0.0877
     42  N         47.1330  126.9180    6.8890 N.am  338  ASN338     -0.1960
     43  CA        47.7310  125.7780    6.2270 C.3   338  ASN338      0.1819
     44  C         49.2440  125.8770    6.0550 C.2   338  ASN338      0.2622
     45  O         49.8560  124.9890    5.4830 O.2   338  ASN338     -0.2715
     46  CB        46.9910  125.4720    4.9330 C.3   338  ASN338      0.1195
     47  CG        47.1720  126.5490    3.8910 C.2   338  ASN338      0.2630
     48  OD1       47.6610  127.6610    4.1730 O.2   338  ASN338     -0.2716
     49  ND2       46.7750  126.2240    2.6590 N.am  338  ASN338     -0.0877
     50  N         49.8140  126.9600    6.5700 N.am  339  SER339     -0.1936
     51  CA        51.2520  127.1520    6.7310 C.3   339  SER339      0.2055
     52  C         52.0850  127.0430    5.4290 C.2   339  SER339      0.2642
     53  O         53.2620  126.6640    5.4660 O.2   339  SER339     -0.2714
     54  CB        51.7940  126.2460    7.8560 C.3   339  SER339      0.2130
     55  OG        51.2640  126.6360    9.1190 O.3   339  SER339     -0.2179
     56  N         51.4690  127.3970    4.2940 N.am  340  ILE340     -0.1977
     57  CA        52.1960  127.5270    3.0060 C.3   340  ILE340      0.1596
     58  C         53.3050  128.5440    3.2180 C.2   340  ILE340      0.2287
     59  O         53.0460  129.7070    3.5040 O.2   340  ILE340     -0.2864
     60  CB        51.2320  127.9340    1.8130 C.3   340  ILE340      0.0276
     61  CG1       50.0320  126.9730    1.6920 C.3   340  ILE340      0.0022
     62  CG2       51.9880  127.9900    0.4360 C.3   340  ILE340      0.0022
     63  CD1       50.4240  125.4920    1.4130 C.3   340  ILE340      0.0001
     64  N         61.1100  131.7200    3.6700 N.3   345  GLU345     -0.1245
     65  CA        60.6770  131.2490    5.0030 C.3   345  GLU345      0.1567
     66  C         61.3360  129.9020    5.3580 C.2   345  GLU345      0.2260
     67  O         61.8600  129.7100    6.4820 O.2   345  GLU345     -0.2867
     68  CB        59.1390  131.1920    5.0800 C.3   345  GLU345      0.0388
     69  CG        58.5240  132.6060    5.1500 C.3   345  GLU345      0.1160
     70  CD        57.0140  132.6590    4.9860 C.2   345  GLU345      0.3649
     71  OE1       56.3840  133.3770    5.7810 O.co2 345  GLU345     -0.2457
     72  OE2       56.4550  132.0150    4.0750 O.co2 345  GLU345     -0.2457
@<TRIPOS>BOND
     1    62    60    1
     2    63    61    1
     3    61    60    1
     4    60    57    1
     5    49    47   am
     6    57    58    1
     7    57    56    1
     8    58    59    2
     9    64    65    1
    10    47    48    2
    11    47    46    1
    12    72    70   ar
    13    56    52   am
    14    46    43    1
    15    70    69    1
    16    70    71   ar
    17    65    68    1
    18    65    66    1
    19    68    69    1
    20    66    67    2
    21    52    53    2
    22    52    51    1
    23    45    44    2
    24    44    43    1
    25    44    50   am
    26    43    42    1
    27    50    51    1
    28    51    54    1
    29    42    36   am
    30    27    26   ar
    31    27    25   ar
    32    54    55    1
    33    16    15    2
    34    36    35    1
    35    36    37    2
    36    26    24   ar
    37    25    23   ar
    38    14    15    1
    39    14    13    1
    40    38    39    1
    41    38    35    1
    42     9     8    2
    43    40    39    2
    44    39    41   am
    45    15    17   am
    46    35    34    1
    47    24    22   ar
    48     8    13   am
    49     8     7    1
    50    23    22   ar
    51    10     7    1
    52    10    11    1
    53    22    21    1
    54    17    18    1
    55     7     6    1
    56    18    21    1
    57    18    19    1
    58    11    12    1
    59    12     6    1
    60     6     3   am
    61    19    28   am
    62    19    20    2
    63    28    29    1
    64    31    30    2
    65     5     2    1
    66     3     4    2
    67     3     2    1
    68    32    29    1
    69    32    33    1
    70     2     1    1
    71    29    30    1
