@<TRIPOS>MOLECULE
tmp/1xluA04.pdb
 102 101 0 0 0
SMALL
GASTEIGER

@<TRIPOS>ATOM
      1  N         59.6090  113.9840   26.7080 N.3   112  GLY112     -0.1210
      2  CA        59.5220  115.3730   27.1320 C.3   112  GLY112      0.1956
      3  C         60.8540  116.0950   26.9890 C.2   112  GLY112      0.2612
      4  O         61.1280  117.0690   27.7110 O.2   112  GLY112     -0.2717
      5  N         61.7050  115.5920   26.0850 N.am  113  GLY113     -0.1956
      6  CA        63.0250  116.1820   25.8480 C.3   113  GLY113      0.1869
      7  C         63.9770  116.1970   27.0470 C.2   113  GLY113      0.2309
      8  O         64.8840  116.9670   27.0510 O.2   113  GLY113     -0.2863
      9  N         58.8720  106.6780   24.8510 N.3   193  GLU193     -0.1231
     10  CA        58.7410  107.4770   23.6210 C.3   193  GLU193      0.1699
     11  C         59.5980  108.7310   23.7050 C.2   193  GLU193      0.2593
     12  O         59.7630  109.3090   24.8010 O.2   193  GLU193     -0.2718
     13  CB        57.2600  107.7820   23.2820 C.3   193  GLU193      0.0402
     14  CG        57.0290  108.5280   21.9540 C.3   193  GLU193      0.1161
     15  CD        57.0010  110.0550   22.1180 C.2   193  GLU193      0.3649
     16  OE1       57.0790  110.5210   23.2910 O.co2 193  GLU193     -0.2457
     17  OE2       56.8860  110.7900   21.0910 O.co2 193  GLU193     -0.2457
     18  N         60.1680  109.1020   22.5510 N.am  194  SER194     -0.1938
     19  CA        61.1000  110.2290   22.3670 C.3   194  SER194      0.2055
     20  C         62.2550  110.1540   23.3750 C.2   194  SER194      0.2642
     21  O         62.9870  109.1670   23.3590 O.2   194  SER194     -0.2714
     22  CB        60.3550  111.5730   22.3860 C.3   194  SER194      0.2130
     23  OG        60.9840  112.8260   22.0270 O.3   194  SER194     -0.2179
     24  N         62.3840  111.1290   24.2910 N.am  195  ALA195     -0.1977
     25  CA        63.4100  111.0620   25.3450 C.3   195  ALA195      0.1597
     26  C         63.2600  109.8420   26.2110 C.2   195  ALA195      0.2287
     27  O         64.2390  109.3910   26.8040 O.2   195  ALA195     -0.2864
     28  CB        63.4120  112.3570   26.2560 C.3   195  ALA195      0.0319
     29  N         69.6740  115.4580   19.5400 N.3   227  TRP227     -0.1241
     30  CA        69.2490  116.1480   20.7700 C.3   227  TRP227      0.1605
     31  C         69.4930  115.3500   22.0540 C.2   227  TRP227      0.2264
     32  O         69.2520  115.8620   23.1360 O.2   227  TRP227     -0.2867
     33  CB        67.7580  116.5170   20.6800 C.3   227  TRP227      0.0550
     34  CG        66.8900  115.3640   20.2490 C.ar  227  TRP227      0.0003
     35  CD1       66.4840  115.0830   18.9680 C.ar  227  TRP227      0.0946
     36  CD2       66.3910  114.2880   21.0650 C.ar  227  TRP227      0.0152
     37  NE1       65.7500  113.9210   18.9430 N.ar  227  TRP227     -0.2442
     38  CE2       65.6650  113.4200   20.2210 C.ar  227  TRP227      0.0810
     39  CE3       66.4560  113.9800   22.4300 C.ar  227  TRP227      0.0012
     40  CZ2       65.0270  112.2600   20.6970 C.ar  227  TRP227      0.0191
     41  CZ3       65.8090  112.7880   22.9000 C.ar  227  TRP227      0.0001
     42  CH2       65.1160  111.9770   22.0390 C.ar  227  TRP227      0.0015
     43  N         63.4010  124.8210   19.0100 N.3   281  PRO281     -0.2102
     44  CA        62.2400  124.1170   19.6040 C.3   281  PRO281      0.1504
     45  C         62.5720  122.6900   20.0740 C.2   281  PRO281      0.2576
     46  O         61.7500  122.0620   20.7220 O.2   281  PRO281     -0.2718
     47  CB        61.2550  124.0680   18.4560 C.3   281  PRO281      0.0282
     48  CG        61.6820  125.2100   17.5410 C.3   281  PRO281      0.0208
     49  CD        63.1450  125.2320   17.6160 C.3   281  PRO281      0.0893
     50  N         63.7600  122.1900   19.7270 N.am  282  LEU282     -0.1966
     51  CA        64.1970  120.8380   20.0740 C.3   282  LEU282      0.1728
     52  C         65.3640  120.8780   21.0650 C.2   282  LEU282      0.2617
     53  O         65.9780  119.8590   21.3640 O.2   282  LEU282     -0.2715
     54  CB        64.6040  120.0490   18.8210 C.3   282  LEU282      0.0311
     55  CG        63.4160  119.5650   17.9970 C.3   282  LEU282      0.0022
     56  CD1       63.3050  120.3720   16.7770 C.3   282  LEU282      0.0001
     57  CD2       63.5560  118.1060   17.6560 C.3   282  LEU282      0.0001
     58  N         65.6340  122.0550   21.6080 N.am  283  SER283     -0.1936
     59  CA        66.6660  122.2150   22.6280 C.3   283  SER283      0.2055
     60  C         66.5080  121.2890   23.8320 C.2   283  SER283      0.2642
     61  O         65.4400  121.1100   24.3810 O.2   283  SER283     -0.2714
     62  CB        66.7190  123.6790   23.0970 C.3   283  SER283      0.2130
     63  OG        67.6920  124.3760   22.3470 O.3   283  SER283     -0.2179
     64  N         67.6100  120.7280   24.2530 N.am  284  VAL284     -0.1977
     65  CA        67.6330  119.8710   25.4010 C.3   284  VAL284      0.1596
     66  C         68.7530  120.4800   26.1930 C.2   284  VAL284      0.2287
     67  O         69.8940  120.0290   26.1290 O.2   284  VAL284     -0.2864
     68  CB        67.9320  118.3810   25.0220 C.3   284  VAL284      0.0276
     69  CG1       68.2600  117.5500   26.2620 C.3   284  VAL284      0.0022
     70  CG2       66.7270  117.7760   24.2330 C.3   284  VAL284      0.0022
     71  N         57.0480  120.5730   15.6270 N.3   325  PHE325     -0.1241
     72  CA        58.0410  121.5210   16.1030 C.3   325  PHE325      0.1605
     73  C         58.0060  122.8460   15.3650 C.2   325  PHE325      0.2264
     74  O         58.4810  123.8500   15.8830 O.2   325  PHE325     -0.2867
     75  CB        59.4660  120.8920   16.1640 C.3   325  PHE325      0.0534
     76  CG        59.5260  119.6860   17.0590 C.ar  325  PHE325     -0.0203
     77  CD1       59.2530  118.4090   16.5470 C.ar  325  PHE325     -0.0042
     78  CD2       59.7970  119.8340   18.4330 C.ar  325  PHE325     -0.0042
     79  CE1       59.2720  117.2770   17.3920 C.ar  325  PHE325     -0.0003
     80  CE2       59.8390  118.7280   19.2770 C.ar  325  PHE325     -0.0003
     81  CZ        59.5650  117.4410   18.7610 C.ar  325  PHE325     -0.0000
     82  N         64.7240  112.4020   14.3800 N.3   392  PHE392     -0.1241
     83  CA        64.0970  111.1520   14.8600 C.3   392  PHE392      0.1605
     84  C         64.2940  109.9290   13.9300 C.2   392  PHE392      0.2264
     85  O         64.7360  108.8760   14.3820 O.2   392  PHE392     -0.2867
     86  CB        62.5980  111.3670   15.1520 C.3   392  PHE392      0.0534
     87  CG        62.3360  112.4440   16.1740 C.ar  392  PHE392     -0.0203
     88  CD1       61.9920  113.7350   15.7530 C.ar  392  PHE392     -0.0042
     89  CD2       62.5070  112.1890   17.5260 C.ar  392  PHE392     -0.0042
     90  CE1       61.7620  114.8030   16.6790 C.ar  392  PHE392     -0.0003
     91  CE2       62.2910  113.2140   18.4780 C.ar  392  PHE392     -0.0003
     92  CZ        61.9060  114.5600   18.0380 C.ar  392  PHE392     -0.0000
     93  N         54.5030  113.3310   15.8390 N.3   432  HIS432     -0.1241
     94  CA        55.2710  112.9290   17.0010 C.3   432  HIS432      0.1621
     95  C         54.3930  112.8220   18.2420 C.2   432  HIS432      0.2264
     96  O         53.6940  113.7630   18.5420 O.2   432  HIS432     -0.2867
     97  CB        56.3410  114.0120   17.2400 C.3   432  HIS432      0.0745
     98  CG        57.3250  113.6660   18.3100 C.ar  432  HIS432      0.0817
     99  ND1       58.2760  112.6900   18.1490 N.ar  432  HIS432     -0.2268
    100  CD2       57.5270  114.1920   19.5420 C.ar  432  HIS432      0.1154
    101  CE1       59.0200  112.6190   19.2400 C.ar  432  HIS432      0.1986
    102  NE2       58.5840  113.5220   20.1020 N.ar  432  HIS432     -0.2212
@<TRIPOS>BOND
     1    84    85    2
     2    84    83    1
     3    82    83    1
     4    83    86    1
     5    86    87    1
     6    73    74    2
     7    73    72    1
     8    71    72    1
     9    88    87   ar
    10    88    90   ar
    11    93    94    1
    12    72    75    1
    13    75    76    1
    14    87    89   ar
    15    77    76   ar
    16    77    79   ar
    17    90    92   ar
    18    56    55    1
    19    94    97    1
    20    94    95    1
    21    76    78   ar
    22    97    98    1
    23    79    81   ar
    24    89    91   ar
    25    48    49    1
    26    48    47    1
    27    49    43    1
    28    57    55    1
    29    55    54    1
    30    92    91   ar
    31    99    98   ar
    32    99   101   ar
    33    95    96    2
    34    98   100   ar
    35    78    80   ar
    36    47    44    1
    37    81    80   ar
    38    54    51    1
    39    37    35   ar
    40    37    38   ar
    41    35    34   ar
    42    43    44    1
    43   101   102   ar
    44    29    30    1
    45   100   102   ar
    46    44    45    1
    47    50    51    1
    48    50    45   am
    49    51    52    1
    50    45    46    2
    51    38    40   ar
    52    38    36   ar
    53    34    33    1
    54    34    36   ar
    55    33    30    1
    56    40    42   ar
    57    30    31    1
    58    52    53    2
    59    52    58   am
    60    36    39   ar
    61    17    15   ar
    62    58    59    1
    63    14    15    1
    64    14    13    1
    65    23    22    1
    66    42    41   ar
    67    31    32    2
    68    15    16   ar
    69    63    62    1
    70    19    22    1
    71    19    18    1
    72    19    20    1
    73    39    41   ar
    74    18    11   am
    75    59    62    1
    76    59    60    1
    77    13    10    1
    78    21    20    2
    79    20    24   am
    80    10    11    1
    81    10     9    1
    82    11    12    2
    83    60    64   am
    84    60    61    2
    85    70    68    1
    86    64    65    1
    87    24    25    1
    88    68    65    1
    89    68    69    1
    90    25    26    1
    91    25    28    1
    92    65    66    1
    93     6     5    1
    94     6     7    1
    95     5     3   am
    96    67    66    2
    97    26    27    2
    98     1     2    1
    99     3     2    1
   100     3     4    2
   101     7     8    2
