@<TRIPOS>MOLECULE
tmp/1xlxA00.pdb
 214 205 0 0 0
SMALL
GASTEIGER

@<TRIPOS>ATOM
      1  N          0.2020   11.4670   -8.5020 N.3    70  TYR70      -0.1227
      2  CA        -0.0690   10.3310   -7.6550 C.3    70  TYR70       0.1736
      3  C          0.6290   10.3960   -6.3020 C.2    70  TYR70       0.2595
      4  O          0.0060   10.1590   -5.2940 O.2    70  TYR70      -0.2718
      5  CB         0.2850    9.0590   -8.3920 C.3    70  TYR70       0.0548
      6  CG        -0.0030    7.7740   -7.6170 C.ar   70  TYR70      -0.0200
      7  CD1       -1.1850    7.0220   -7.8140 C.ar   70  TYR70      -0.0009
      8  CD2        0.9460    7.2690   -6.7220 C.ar   70  TYR70      -0.0009
      9  CE1       -1.3830    5.7980   -7.1220 C.ar   70  TYR70       0.0417
     10  CE2        0.7430    6.0820   -5.9870 C.ar   70  TYR70       0.0417
     11  CZ        -0.4020    5.3450   -6.1940 C.ar   70  TYR70       0.1957
     12  OH        -0.5050    4.1370   -5.4800 O.3    70  TYR70      -0.2866
     13  N          1.9010   10.7220   -6.2850 N.am   71  HIS71      -0.1975
     14  CA         2.7090   10.5920   -5.0950 C.3    71  HIS71       0.1656
     15  C          2.6510   11.8700   -4.1570 C.2    71  HIS71       0.2291
     16  O          3.7040   12.3720   -3.7130 O.2    71  HIS71      -0.2864
     17  CB         4.1460   10.2250   -5.4900 C.3    71  HIS71       0.0771
     18  CG         4.3260    8.8550   -6.1220 C.ar   71  HIS71       0.0820
     19  ND1        4.4460    8.6710   -7.4800 N.ar   71  HIS71      -0.2267
     20  CD2        4.5290    7.6340   -5.5700 C.ar   71  HIS71       0.1154
     21  CE1        4.6430    7.3940   -7.7440 C.ar   71  HIS71       0.1986
     22  NE2        4.7210    6.7480   -6.5990 N.ar   71  HIS71      -0.2212
     23  N         -2.0340    9.6330   -1.2670 N.3    75  HIS75      -0.1241
     24  CA        -1.4530    8.3190   -1.3540 C.3    75  HIS75       0.1621
     25  C         -0.8350    7.9160   -0.0080 C.2    75  HIS75       0.2264
     26  O         -1.0640    6.8310    0.4830 O.2    75  HIS75      -0.2867
     27  CB        -0.4640    8.2830   -2.5040 C.3    75  HIS75       0.0745
     28  CG         0.3640    7.0660   -2.5120 C.ar   75  HIS75       0.0817
     29  ND1       -0.1830    5.8110   -2.6210 N.ar   75  HIS75      -0.2268
     30  CD2        1.6970    6.8950   -2.3990 C.ar   75  HIS75       0.1154
     31  CE1        0.7850    4.9150   -2.5830 C.ar   75  HIS75       0.1986
     32  NE2        1.9360    5.5480   -2.4430 N.ar   75  HIS75      -0.2212
     33  N          6.6400    8.0580    1.3130 N.3   112  ASP112     -0.1239
     34  CA         6.9450    8.6490   -0.0010 C.3   112  ASP112      0.1674
     35  C          7.0780   10.1560    0.1320 C.2   112  ASP112      0.2266
     36  O          6.8640   10.8570   -0.8740 O.2   112  ASP112     -0.2867
     37  CB         5.8100    8.4230   -0.9800 C.3   112  ASP112      0.1410
     38  CG         6.0310    7.2980   -1.9020 C.2   112  ASP112      0.3668
     39  OD1        7.1990    6.7880   -2.0720 O.co2 112  ASP112     -0.2456
     40  OD2        5.0050    6.8150   -2.4680 O.co2 112  ASP112     -0.2456
     41  N          8.4260   13.0850   -2.5600 N.3   115  HIS115     -0.1241
     42  CA         8.5070   12.3920   -3.8320 C.3   115  HIS115      0.1621
     43  C          8.3590   13.4010   -4.9970 C.2   115  HIS115      0.2264
     44  O          7.4740   14.2240   -4.9310 O.2   115  HIS115     -0.2867
     45  CB         7.3950   11.3400   -3.8720 C.3   115  HIS115      0.0745
     46  CG         7.5720   10.3640   -4.9970 C.ar  115  HIS115      0.0817
     47  ND1        7.6110   10.7550   -6.3090 N.ar  115  HIS115     -0.2268
     48  CD2        7.8700    9.0490   -4.9920 C.ar  115  HIS115      0.1154
     49  CE1        7.8320    9.7030   -7.0770 C.ar  115  HIS115      0.1986
     50  NE2        8.0040    8.6540   -6.2940 N.ar  115  HIS115     -0.2212
     51  N         10.6630    8.4340  -11.3130 N.3   119  SER119     -0.1217
     52  CA        11.2040    7.1760  -10.7600 C.3   119  SER119      0.1889
     53  C         12.6760    7.2570  -10.2900 C.2   119  SER119      0.2288
     54  O         13.4050    8.2000  -10.5790 O.2   119  SER119     -0.2866
     55  CB        11.1340    6.1070  -11.8710 C.3   119  SER119      0.2089
     56  OG        12.1080    6.3900  -12.8800 O.3   119  SER119     -0.2183
     57  N         15.0070    7.3520   -3.9850 N.3   140  LEU140     -0.1231
     58  CA        13.8590    8.0070   -3.3890 C.3   140  LEU140      0.1693
     59  C         13.5580    7.5180   -1.9530 C.2   140  LEU140      0.2591
     60  O         13.2750    8.3120   -1.0380 O.2   140  LEU140     -0.2718
     61  CB        12.6870    7.8150   -4.3020 C.3   140  LEU140      0.0284
     62  CG        12.6380    8.7670   -5.4830 C.3   140  LEU140      0.0019
     63  CD1       11.4200    8.5650   -6.2630 C.3   140  LEU140      0.0001
     64  CD2       12.6940   10.2590   -5.0780 C.3   140  LEU140      0.0001
     65  N         13.7250    6.2320   -1.7530 N.am  141  GLU141     -0.1979
     66  CA        13.3280    5.5560   -0.5400 C.3   141  GLU141      0.1602
     67  C         14.1870    5.9950    0.6250 C.2   141  GLU141      0.2287
     68  O         13.6920    6.3050    1.6900 O.2   141  GLU141     -0.2864
     69  CB        13.3460    4.0010   -0.8240 C.3   141  GLU141      0.0415
     70  CG        12.2360    3.4620   -1.7550 C.3   141  GLU141      0.1163
     71  CD        12.5150    3.6270   -3.2180 C.2   141  GLU141      0.3649
     72  OE1       13.6630    3.9450   -3.5460 O.co2 141  GLU141     -0.2457
     73  OE2       11.5670    3.4360   -4.0390 O.co2 141  GLU141     -0.2457
     74  N          9.6850   -0.7150    0.3410 N.3   182  THR182     -0.1218
     75  CA         8.7520   -0.2410   -0.7290 C.3   182  THR182      0.1862
     76  C          9.4390   -0.0070   -2.0750 C.2   182  THR182      0.2287
     77  O          8.8060    0.4510   -3.0090 O.2   182  THR182     -0.2866
     78  CB         8.0210    1.0660   -0.4010 C.3   182  THR182      0.1770
     79  OG1        8.9450    2.1600   -0.2010 O.3   182  THR182     -0.2211
     80  CG2        7.3140    0.9670    0.8910 C.3   182  THR182      0.0375
     81  N         10.6100   -0.8490   -5.4240 N.3   184  MET184     -0.1245
     82  CA        10.1760   -1.9090   -6.3100 C.3   184  MET184      0.1570
     83  C         11.2470   -2.8300   -6.8110 C.2   184  MET184      0.2261
     84  O         10.9330   -3.9760   -7.1500 O.2   184  MET184     -0.2867
     85  CB         9.3310   -1.3720   -7.4640 C.3   184  MET184      0.0387
     86  CG         7.9150   -0.9840   -6.9540 C.3   184  MET184      0.0595
     87  SD         6.9730   -2.4140   -6.2950 S.3   184  MET184     -0.1393
     88  CE         6.7750   -3.2850   -7.9670 C.3   184  MET184      0.0692
     89  N          1.0500   -0.3980   -0.0080 N.3   229  ASP229     -0.1225
     90  CA         1.5240    0.4440   -1.0670 C.3   229  ASP229      0.1805
     91  C          1.0460   -0.0690   -2.4450 C.2   229  ASP229      0.2597
     92  O          0.8150    0.6990   -3.3630 O.2   229  ASP229     -0.2718
     93  CB         3.0390    0.4890   -0.9650 C.3   229  ASP229      0.1424
     94  CG         3.6410    1.5460   -1.8260 C.2   229  ASP229      0.3668
     95  OD1        4.6950    1.2820   -2.4480 O.co2 229  ASP229     -0.2456
     96  OD2        3.0970    2.6610   -1.9610 O.co2 229  ASP229     -0.2456
     97  N          0.8840   -1.3710   -2.5910 N.am  230  LEU230     -0.1979
     98  CA         0.3900   -1.9340   -3.8740 C.3   230  LEU230      0.1596
     99  C         -0.9890   -2.4350   -3.6330 C.2   230  LEU230      0.2287
    100  O         -1.3160   -3.5060   -4.0310 O.2   230  LEU230     -0.2864
    101  CB         1.1920   -3.1160   -4.3240 C.3   230  LEU230      0.0297
    102  CG         2.6660   -2.9200   -4.5260 C.3   230  LEU230      0.0022
    103  CD1        3.1470   -4.1640   -5.2260 C.3   230  LEU230      0.0001
    104  CD2        2.8840   -1.7070   -5.3580 C.3   230  LEU230      0.0001
    105  N         -3.8740   -0.4690   -4.3800 N.3   232  ASN232     -0.1240
    106  CA        -4.9700    0.1630   -5.1280 C.3   232  ASN232      0.1653
    107  C         -5.9250   -0.8170   -5.8430 C.2   232  ASN232      0.2266
    108  O         -7.1330   -0.6450   -5.7260 O.2   232  ASN232     -0.2867
    109  CB        -4.4700    1.1460   -6.1720 C.3   232  ASN232      0.1155
    110  CG        -3.7160    2.2760   -5.6030 C.2   232  ASN232      0.2627
    111  OD1       -2.9410    2.8890   -6.3240 O.2   232  ASN232     -0.2716
    112  ND2       -3.9350    2.6040   -4.2740 N.am  232  ASN232     -0.0877
    113  N        -10.1270    2.4240   -7.3560 N.3   240  TYR240     -0.1241
    114  CA        -9.0640    1.9070   -8.1960 C.3   240  TYR240      0.1605
    115  C         -8.9100    2.7030   -9.4950 C.2   240  TYR240      0.2264
    116  O         -7.8120    2.9400   -9.9260 O.2   240  TYR240     -0.2867
    117  CB        -9.3160    0.4150   -8.5030 C.3   240  TYR240      0.0534
    118  CG        -8.2960   -0.3230   -9.4090 C.ar  240  TYR240     -0.0201
    119  CD1       -7.0040    0.1430   -9.6150 C.ar  240  TYR240     -0.0009
    120  CD2       -8.6390   -1.5120  -10.0110 C.ar  240  TYR240     -0.0009
    121  CE1       -6.0870   -0.5490  -10.4320 C.ar  240  TYR240      0.0417
    122  CE2       -7.7260   -2.2190  -10.8130 C.ar  240  TYR240      0.0417
    123  CZ        -6.4610   -1.7300  -11.0220 C.ar  240  TYR240      0.1957
    124  OH        -5.6120   -2.4420  -11.8140 O.3   240  TYR240     -0.2866
    125  N         -7.2890    6.0490   -8.6840 N.3   243  TRP243     -0.1227
    126  CA        -5.8610    5.7350   -8.4320 C.3   243  TRP243      0.1737
    127  C         -5.1020    5.3800   -9.7110 C.2   243  TRP243      0.2596
    128  O         -3.9780    5.7700   -9.8680 O.2   243  TRP243     -0.2718
    129  CB        -5.7230    4.5900   -7.4760 C.3   243  TRP243      0.0564
    130  CG        -6.0180    4.9460   -6.0730 C.ar  243  TRP243      0.0003
    131  CD1       -6.8640    4.3060   -5.2630 C.ar  243  TRP243      0.0946
    132  CD2       -5.4330    6.0230   -5.3170 C.ar  243  TRP243      0.0152
    133  NE1       -6.8670    4.9000   -4.0280 N.ar  243  TRP243     -0.2442
    134  CE2       -5.9950    5.9670   -4.0320 C.ar  243  TRP243      0.0810
    135  CE3       -4.4710    7.0300   -5.6020 C.ar  243  TRP243      0.0012
    136  CZ2       -5.6490    6.8860   -3.0030 C.ar  243  TRP243      0.0191
    137  CZ3       -4.1030    7.9360   -4.5910 C.ar  243  TRP243      0.0001
    138  CH2       -4.6930    7.8570   -3.3030 C.ar  243  TRP243      0.0015
    139  N         -5.7360    4.6360  -10.6180 N.am  244  THR244     -0.1953
    140  CA        -5.1120    4.3010  -11.9100 C.3   244  THR244      0.1897
    141  C         -4.9440    5.5260  -12.7130 C.2   244  THR244      0.2313
    142  O         -3.9480    5.6820  -13.3790 O.2   244  THR244     -0.2863
    143  CB        -5.9770    3.3600  -12.7100 C.3   244  THR244      0.1794
    144  OG1       -5.9250    2.0750  -12.0850 O.3   244  THR244     -0.2208
    145  CG2       -5.4500    3.1770  -14.1570 C.3   244  THR244      0.0378
    146  N         -1.9430    7.5860  -11.3360 N.3   247  ILE247     -0.1231
    147  CA        -0.6230    7.0580  -11.6370 C.3   247  ILE247      0.1692
    148  C         -0.2120    7.1990  -13.1070 C.2   247  ILE247      0.2591
    149  O          0.9620    7.2880  -13.3460 O.2   247  ILE247     -0.2718
    150  CB        -0.4440    5.6170  -11.1950 C.3   247  ILE247      0.0266
    151  CG1        1.0450    5.2690  -11.0440 C.3   247  ILE247      0.0019
    152  CG2       -1.0820    4.6390  -12.2150 C.3   247  ILE247      0.0020
    153  CD1        1.8710    6.3040  -10.4590 C.3   247  ILE247      0.0001
    154  N         -1.1600    7.2070  -14.0540 N.am  248  MET248     -0.1979
    155  CA        -0.8790    7.3630  -15.4800 C.3   248  MET248      0.1605
    156  C         -0.5800    8.8130  -15.7790 C.2   248  MET248      0.2287
    157  O          0.2310    9.1280  -16.6360 O.2   248  MET248     -0.2864
    158  CB        -2.0690    6.9140  -16.3360 C.3   248  MET248      0.0413
    159  CG        -2.2110    5.3880  -16.6500 C.3   248  MET248      0.0598
    160  SD        -0.6750    4.5810  -17.1780 S.3   248  MET248     -0.1393
    161  CE        -0.1650    4.1530  -15.6760 C.3   248  MET248      0.0692
    162  N          3.1450    9.0930  -14.6470 N.3   251  PHE251     -0.1241
    163  CA         3.9990    8.4200  -15.6410 C.3   251  PHE251      0.1605
    164  C          4.0870    9.1670  -16.9700 C.2   251  PHE251      0.2264
    165  O          5.1430    9.3110  -17.5550 O.2   251  PHE251     -0.2867
    166  CB         3.5030    6.9880  -15.9240 C.3   251  PHE251      0.0534
    167  CG         4.0280    5.9310  -14.9680 C.ar  251  PHE251     -0.0203
    168  CD1        4.3090    6.2160  -13.6260 C.ar  251  PHE251     -0.0042
    169  CD2        4.1930    4.6360  -15.4050 C.ar  251  PHE251     -0.0042
    170  CE1        4.7790    5.2160  -12.7710 C.ar  251  PHE251     -0.0003
    171  CE2        4.6530    3.6600  -14.5870 C.ar  251  PHE251     -0.0003
    172  CZ         4.9360    3.9350  -13.2630 C.ar  251  PHE251     -0.0000
    173  N          5.6460    2.2040  -20.6990 N.3   268  MET268     -0.1245
    174  CA         4.4950    2.5290  -19.8550 C.3   268  MET268      0.1570
    175  C          4.4190    3.9960  -19.4670 C.2   268  MET268      0.2261
    176  O          3.5310    4.3780  -18.7130 O.2   268  MET268     -0.2867
    177  CB         4.5050    1.6710  -18.5690 C.3   268  MET268      0.0387
    178  CG         3.9410    0.2290  -18.7950 C.3   268  MET268      0.0595
    179  SD         3.8640   -0.7050  -17.2360 S.3   268  MET268     -0.1393
    180  CE         5.6600   -0.8260  -16.7230 C.3   268  MET268      0.0692
    181  N         -1.9540   -2.1980  -19.5300 N.3   279  SER279     -0.1202
    182  CA        -1.0180   -1.8410  -18.4920 C.3   279  SER279      0.2020
    183  C         -1.5060   -2.2510  -17.0780 C.2   279  SER279      0.2618
    184  O         -0.6920   -2.7220  -16.2770 O.2   279  SER279     -0.2717
    185  CB        -0.7730   -0.3470  -18.5100 C.3   279  SER279      0.2103
    186  OG         0.3980   -0.0740  -19.1960 O.3   279  SER279     -0.2182
    187  N         -2.7860   -2.0530  -16.7480 N.am  280  GLN280     -0.1979
    188  CA        -3.2630   -2.3940  -15.3760 C.3   280  GLN280      0.1601
    189  C         -3.4150   -3.9310  -15.2490 C.2   280  GLN280      0.2287
    190  O         -3.1960   -4.4890  -14.1580 O.2   280  GLN280     -0.2864
    191  CB        -4.5910   -1.6910  -15.0060 C.3   280  GLN280      0.0394
    192  CG        -4.4700   -0.2490  -14.5890 C.3   280  GLN280      0.0908
    193  CD        -3.5360   -0.0880  -13.3670 C.2   280  GLN280      0.2608
    194  OE1       -3.5910   -0.9050  -12.4900 O.2   280  GLN280     -0.2717
    195  NE2       -2.6500    0.9220  -13.3580 N.am  280  GLN280     -0.0878
    196  N         -0.1000   -5.3460  -14.5540 N.3   283  PHE283     -0.1241
    197  CA         0.2560   -4.9580  -13.1910 C.3   283  PHE283      0.1605
    198  C         -0.4060   -5.9280  -12.1770 C.2   283  PHE283      0.2264
    199  O          0.2010   -6.3150  -11.1690 O.2   283  PHE283     -0.2867
    200  CB        -0.1510   -3.4870  -12.9960 C.3   283  PHE283      0.0534
    201  CG         0.1390   -2.9190  -11.6530 C.ar  283  PHE283     -0.0203
    202  CD1        1.3810   -3.0450  -11.0700 C.ar  283  PHE283     -0.0042
    203  CD2       -0.8240   -2.1580  -10.9920 C.ar  283  PHE283     -0.0042
    204  CE1        1.6380   -2.4690   -9.7960 C.ar  283  PHE283     -0.0003
    205  CE2       -0.5750   -1.5990   -9.6820 C.ar  283  PHE283     -0.0003
    206  CZ         0.6370   -1.7550   -9.1050 C.ar  283  PHE283     -0.0000
    207  N          2.4130   -8.5910  -10.8330 N.3   287  ILE287     -0.1245
    208  CA         2.8990   -8.0040   -9.5800 C.3   287  ILE287      0.1561
    209  C          1.9140   -8.0940   -8.4190 C.2   287  ILE287      0.2260
    210  O          2.2200   -8.7760   -7.4430 O.2   287  ILE287     -0.2867
    211  CB         3.4070   -6.5320   -9.7960 C.3   287  ILE287      0.0252
    212  CG1        4.6800   -6.5490  -10.6420 C.3   287  ILE287      0.0019
    213  CG2        3.7020   -5.8370   -8.4610 C.3   287  ILE287      0.0019
    214  CD1        4.7430   -5.4410  -11.6190 C.3   287  ILE287      0.0001
@<TRIPOS>BOND
     1   173   174    1
     2   174   175    1
     3   174   177    1
     4   181   182    1
     5   175   176    2
     6   186   185    1
     7   178   177    1
     8   178   179    1
     9   185   182    1
    10   182   183    1
    11   165   164    2
    12   179   180    1
    13   160   159    1
    14   160   161    1
    15   183   187   am
    16   183   184    2
    17   164   163    1
    18   187   188    1
    19   159   158    1
    20   157   156    2
    21   158   155    1
    22   166   163    1
    23   166   167    1
    24   156   155    1
    25   163   162    1
    26   155   154    1
    27   169   167   ar
    28   169   171   ar
    29   188   189    1
    30   188   191    1
    31   189   190    2
    32   191   192    1
    33   167   168   ar
    34   192   193    1
    35   171   172   ar
    36   196   197    1
    37   145   143    1
    38   154   148   am
    39   168   170   ar
    40   142   141    2
    41   193   195   am
    42   193   194    2
    43   149   148    2
    44   172   170   ar
    45   197   200    1
    46   197   198    1
    47   148   147    1
    48   200   201    1
    49    56    55    1
    50   141   140    1
    51   143   144    1
    52   143   140    1
    53   152   150    1
    54   198   199    2
    55   140   139    1
    56    55    52    1
    57   124   123    1
    58   201   202   ar
    59   201   203   ar
    60   147   146    1
    61   147   150    1
    62   214   212    1
    63    51    52    1
    64   150   151    1
    65   202   204   ar
    66   151   153    1
    67   123   122   ar
    68   123   121   ar
    69   203   205   ar
    70   207   208    1
    71   122   120   ar
    72    52    53    1
    73   212   211    1
    74   139   127   am
    75    54    53    2
    76   121   119   ar
    77   120   118   ar
    78   116   115    2
    79   128   127    2
    80   211   208    1
    81   211   213    1
    82   204   206   ar
    83   127   126    1
    84   205   206   ar
    85   119   118   ar
    86   208   209    1
    87   115   114    1
    88   118   117    1
    89   125   126    1
    90   117   114    1
    91     1     2    1
    92   126   129    1
    93   209   210    2
    94     5     2    1
    95     5     6    1
    96   114   113    1
    97    88    87    1
    98     7     6   ar
    99     7     9   ar
   100    21    19   ar
   101    21    22   ar
   102     2     3    1
   103     6     8   ar
   104    19    18   ar
   105   129   130    1
   106    85    86    1
   107    85    82    1
   108    84    83    2
   109     9    11   ar
   110    49    47   ar
   111    49    50   ar
   112    86    87    1
   113    83    82    1
   114     8    10   ar
   115    22    20   ar
   116   111   110    2
   117    82    81    1
   118    47    46   ar
   119     3    13   am
   120     3     4    2
   121    50    48   ar
   122    13    14    1
   123    63    62    1
   124    11    10   ar
   125    11    12    1
   126   109   110    1
   127   109   106    1
   128    18    20   ar
   129    18    17    1
   130   130   132   ar
   131   130   131   ar
   132   107   108    2
   133   107   106    1
   134   110   112   am
   135   135   132   ar
   136   135   137   ar
   137    17    14    1
   138    62    64    1
   139    62    61    1
   140   104   102    1
   141   132   134   ar
   142   131   133   ar
   143   103   102    1
   144   106   105    1
   145    14    15    1
   146    46    48   ar
   147    46    45    1
   148    43    44    2
   149    43    42    1
   150   137   138   ar
   151   102   101    1
   152   101    98    1
   153    61    58    1
   154    15    16    2
   155    73    71   ar
   156   134   133   ar
   157   134   136   ar
   158   100    99    2
   159    57    58    1
   160    98    99    1
   161    98    97    1
   162    45    42    1
   163    42    41    1
   164    72    71   ar
   165    58    59    1
   166    92    91    2
   167   138   136   ar
   168    71    70    1
   169    77    76    2
   170    29    31   ar
   171    29    28   ar
   172    97    91   am
   173    31    32   ar
   174    28    27    1
   175    28    30   ar
   176    27    24    1
   177    40    38   ar
   178    95    94   ar
   179    91    90    1
   180    32    30   ar
   181    76    75    1
   182    39    38   ar
   183    96    94   ar
   184    59    65   am
   185    59    60    2
   186    38    37    1
   187    94    93    1
   188    70    69    1
   189    65    66    1
   190    24    23    1
   191    24    25    1
   192    90    93    1
   193    90    89    1
   194    37    34    1
   195    36    35    2
   196    69    66    1
   197    75    78    1
   198    75    74    1
   199    66    67    1
   200    78    79    1
   201    78    80    1
   202    25    26    2
   203    34    35    1
   204    34    33    1
   205    67    68    2
