@<TRIPOS>MOLECULE
tmp/1xlzB00.pdb
 164 159 0 0 0
SMALL
GASTEIGER

@<TRIPOS>ATOM
      1  N         44.4150   10.6030   11.5180 N.3    70  TYR70      -0.1227
      2  CA        44.6590    9.4710   10.6500 C.3    70  TYR70       0.1736
      3  C         43.9700    9.5910    9.2830 C.2    70  TYR70       0.2595
      4  O         44.6330    9.4140    8.2710 O.2    70  TYR70      -0.2718
      5  CB        44.2300    8.1760   11.3400 C.3    70  TYR70       0.0548
      6  CG        44.4940    6.9220   10.5440 C.ar   70  TYR70      -0.0200
      7  CD1       45.7130    6.2430   10.6520 C.ar   70  TYR70      -0.0009
      8  CD2       43.5230    6.4100    9.6730 C.ar   70  TYR70      -0.0009
      9  CE1       45.9600    5.0830    9.9450 C.ar   70  TYR70       0.0417
     10  CE2       43.7500    5.2550    8.9430 C.ar   70  TYR70       0.0417
     11  CZ        44.9740    4.5870    9.0830 C.ar   70  TYR70       0.1957
     12  OH        45.2000    3.4370    8.3630 O.3    70  TYR70      -0.2866
     13  N         42.6570    9.8380    9.2710 N.am   71  HIS71      -0.1975
     14  CA        41.8590    9.8660    8.0290 C.3    71  HIS71       0.1656
     15  C         41.9650   11.2030    7.3160 C.2    71  HIS71       0.2291
     16  O         40.9730   11.8960    7.1210 O.2    71  HIS71      -0.2864
     17  CB        40.3700    9.5230    8.2900 C.3    71  HIS71       0.0771
     18  CG        40.1570    8.1220    8.7530 C.ar   71  HIS71       0.0820
     19  ND1       40.0680    7.7950   10.0890 N.ar   71  HIS71      -0.2267
     20  CD2       40.0690    6.9580    8.0740 C.ar   71  HIS71       0.1154
     21  CE1       39.9320    6.4870   10.2110 C.ar   71  HIS71       0.1986
     22  NE2       39.9200    5.9560    9.0040 N.ar   71  HIS71      -0.2212
     23  N         46.5860    9.2850    4.3520 N.3    75  HIS75      -0.1241
     24  CA        46.0600    7.9350    4.3920 C.3    75  HIS75       0.1621
     25  C         45.4640    7.5610    3.0380 C.2    75  HIS75       0.2264
     26  O         45.6750    6.4570    2.5640 O.2    75  HIS75      -0.2867
     27  CB        45.0050    7.8000    5.4720 C.3    75  HIS75       0.0745
     28  CG        44.1390    6.6050    5.3070 C.ar   75  HIS75       0.0817
     29  ND1       44.6080    5.3210    5.4570 N.ar   75  HIS75      -0.2268
     30  CD2       42.8290    6.4980    4.9930 C.ar   75  HIS75       0.1154
     31  CE1       43.6180    4.4750    5.2750 C.ar   75  HIS75       0.1986
     32  NE2       42.5280    5.1640    4.9780 N.ar   75  HIS75      -0.2212
     33  N         33.8080    7.5900   14.2460 N.3   119  SER119     -0.1217
     34  CA        33.2990    6.3640   13.6390 C.3   119  SER119      0.1889
     35  C         31.8310    6.4120   13.2610 C.2   119  SER119      0.2288
     36  O         31.0990    7.3010   13.6650 O.2   119  SER119     -0.2866
     37  CB        33.4660    5.2190   14.6230 C.3   119  SER119      0.2089
     38  OG        32.6400    5.4680   15.7530 O.3   119  SER119     -0.2183
     39  N         34.1850   -1.3660    7.8220 N.3   183  MET183     -0.1245
     40  CA        34.6700   -2.5010    8.6220 C.3   183  MET183      0.1570
     41  C         33.5970   -3.4750    9.0950 C.2   183  MET183      0.2261
     42  O         33.9210   -4.6240    9.3340 O.2   183  MET183     -0.2867
     43  CB        35.5200   -2.0300    9.8170 C.3   183  MET183      0.0387
     44  CG        36.9870   -1.7740    9.4710 C.3   183  MET183      0.0595
     45  SD        37.8940   -3.2910    8.9780 S.3   183  MET183     -0.1393
     46  CE        37.5860   -4.3220   10.3040 C.3   183  MET183      0.0692
     47  N         43.5540   -0.7430    2.4990 N.3   228  ASP228     -0.1225
     48  CA        43.0960    0.0590    3.6340 C.3   228  ASP228      0.1805
     49  C         43.6320   -0.5070    4.9530 C.2   228  ASP228      0.2597
     50  O         43.9190    0.2460    5.8760 O.2   228  ASP228     -0.2718
     51  CB        41.5860    0.0440    3.6520 C.3   228  ASP228      0.1424
     52  CG        40.9880    1.1550    4.4530 C.2   228  ASP228      0.3668
     53  OD1       39.8550    0.9260    4.9370 O.co2 228  ASP228     -0.2456
     54  OD2       41.5340    2.2670    4.6670 O.co2 228  ASP228     -0.2456
     55  N         43.7700   -1.8280    5.0400 N.am  229  LEU229     -0.1979
     56  CA        44.2850   -2.4870    6.2450 C.3   229  LEU229      0.1596
     57  C         45.7290   -2.9500    6.0160 C.2   229  LEU229      0.2287
     58  O         46.1140   -4.0000    6.5160 O.2   229  LEU229     -0.2864
     59  CB        43.4240   -3.6880    6.6100 C.3   229  LEU229      0.0297
     60  CG        41.9660   -3.4310    6.9550 C.3   229  LEU229      0.0022
     61  CD1       41.2620   -4.7310    7.2860 C.3   229  LEU229      0.0001
     62  CD2       41.8590   -2.4330    8.0770 C.3   229  LEU229      0.0001
     63  N         48.5870   -1.0310    6.8430 N.3   231  ASN231     -0.1240
     64  CA        49.5690   -0.3670    7.7140 C.3   231  ASN231      0.1653
     65  C         50.5020   -1.3740    8.4550 C.2   231  ASN231      0.2266
     66  O         51.7100   -1.1650    8.4960 O.2   231  ASN231     -0.2867
     67  CB        48.9350    0.5540    8.7760 C.3   231  ASN231      0.1155
     68  CG        48.1220    1.7460    8.2120 C.2   231  ASN231      0.2627
     69  OD1       47.2970    2.3070    8.9650 O.2   231  ASN231     -0.2716
     70  ND2       48.3440    2.1490    6.9420 N.am  231  ASN231     -0.0877
     71  N         54.6490    1.6320   10.0700 N.3   239  TYR239     -0.1241
     72  CA        53.5710    1.1160   10.8720 C.3   239  TYR239      0.1605
     73  C         53.4600    1.8760   12.2070 C.2   239  TYR239      0.2264
     74  O         52.3910    2.3160   12.5440 O.2   239  TYR239     -0.2867
     75  CB        53.7590   -0.3940   11.0380 C.3   239  TYR239      0.0534
     76  CG        52.7370   -1.1220   11.8650 C.ar  239  TYR239     -0.0201
     77  CD1       51.4430   -0.6390   12.0380 C.ar  239  TYR239     -0.0009
     78  CD2       53.0650   -2.3210   12.4630 C.ar  239  TYR239     -0.0009
     79  CE1       50.5250   -1.3200   12.8280 C.ar  239  TYR239      0.0417
     80  CE2       52.1450   -3.0160   13.2540 C.ar  239  TYR239      0.0417
     81  CZ        50.8880   -2.5020   13.4440 C.ar  239  TYR239      0.1957
     82  OH        49.9920   -3.2130   14.2090 O.3   239  TYR239     -0.2866
     83  N         51.7160    5.1730   11.6540 N.3   242  TRP242     -0.1227
     84  CA        50.2960    4.9720   11.4110 C.3   242  TRP242      0.1737
     85  C         49.5680    4.6670   12.7320 C.2   242  TRP242      0.2596
     86  O         48.4780    5.1640   12.9790 O.2   242  TRP242     -0.2718
     87  CB        50.1000    3.7950   10.4630 C.3   242  TRP242      0.0564
     88  CG        50.5230    4.0800    9.0230 C.ar  242  TRP242      0.0003
     89  CD1       51.3880    3.3480    8.2590 C.ar  242  TRP242      0.0946
     90  CD2       50.0810    5.1580    8.1990 C.ar  242  TRP242      0.0152
     91  NE1       51.5030    3.9050    7.0030 N.ar  242  TRP242     -0.2442
     92  CE2       50.7110    5.0170    6.9400 C.ar  242  TRP242      0.0810
     93  CE3       49.2000    6.2360    8.3900 C.ar  242  TRP242      0.0012
     94  CZ2       50.4880    5.9010    5.8870 C.ar  242  TRP242      0.0191
     95  CZ3       48.9860    7.1120    7.3490 C.ar  242  TRP242      0.0001
     96  CH2       49.6340    6.9450    6.1050 C.ar  242  TRP242      0.0015
     97  N         50.1640    3.8170   13.5530 N.am  243  THR243     -0.1953
     98  CA        49.5670    3.4660   14.8490 C.3   243  THR243      0.1897
     99  C         49.3780    4.6920   15.7140 C.2   243  THR243      0.2313
    100  O         48.3340    4.8550   16.3380 O.2   243  THR243     -0.2863
    101  CB        50.4130    2.4110   15.5650 C.3   243  THR243      0.1794
    102  OG1       50.2360    1.1480   14.8990 O.3   243  THR243     -0.2208
    103  CG2       49.9360    2.1730   17.0310 C.3   243  THR243      0.0378
    104  N         46.2730    6.7560   14.2410 N.3   246  ILE246     -0.1231
    105  CA        44.9500    6.2100   14.5180 C.3   246  ILE246      0.1692
    106  C         44.6260    6.3120   16.0240 C.2   246  ILE246      0.2591
    107  O         43.4960    6.6600   16.3940 O.2   246  ILE246     -0.2718
    108  CB        44.7860    4.7640   13.9590 C.3   246  ILE246      0.0266
    109  CG1       43.3010    4.3480   13.8970 C.3   246  ILE246      0.0019
    110  CG2       45.5230    3.7420   14.8160 C.3   246  ILE246      0.0020
    111  CD1       42.4560    5.0680   12.9010 C.3   246  ILE246      0.0001
    112  N         45.6070    6.0800   16.8910 N.am  247  MET247     -0.1979
    113  CA        45.3350    6.1620   18.3330 C.3   247  MET247      0.1605
    114  C         45.0250    7.5950   18.7220 C.2   247  MET247      0.2287
    115  O         44.1680    7.8570   19.5690 O.2   247  MET247     -0.2864
    116  CB        46.4990    5.6410   19.1590 C.3   247  MET247      0.0413
    117  CG        46.6710    4.1570   19.1440 C.3   247  MET247      0.0598
    118  SD        45.1810    3.1890   19.4260 S.3   247  MET247     -0.1393
    119  CE        44.8250    2.9000   17.8900 C.3   247  MET247      0.0692
    120  N         41.5310    8.0600   17.6190 N.3   250  PHE250     -0.1241
    121  CA        40.6020    7.3130   18.4620 C.3   250  PHE250      0.1605
    122  C         40.4620    7.9550   19.8470 C.2   250  PHE250      0.2264
    123  O         39.3490    8.0750   20.3460 O.2   250  PHE250     -0.2867
    124  CB        41.0470    5.8640   18.6440 C.3   250  PHE250      0.0534
    125  CG        40.6290    4.9270   17.5430 C.ar  250  PHE250     -0.0203
    126  CD1       40.1980    5.3820   16.3060 C.ar  250  PHE250     -0.0042
    127  CD2       40.7110    3.5590   17.7500 C.ar  250  PHE250     -0.0042
    128  CE1       39.8010    4.4850   15.3200 C.ar  250  PHE250     -0.0003
    129  CE2       40.3360    2.6660   16.7570 C.ar  250  PHE250     -0.0003
    130  CZ        39.8860    3.1340   15.5440 C.ar  250  PHE250     -0.0000
    131  N         38.6540    0.9080   23.4190 N.3   267  MET267     -0.1245
    132  CA        39.8980    1.2200   22.7170 C.3   267  MET267      0.1570
    133  C         40.1130    2.7060   22.4240 C.2   267  MET267      0.2261
    134  O         41.1840    3.0970   21.9190 O.2   267  MET267     -0.2867
    135  CB        39.9940    0.4120   21.4120 C.3   267  MET267      0.0387
    136  CG        40.5620   -0.9860   21.6350 C.3   267  MET267      0.0595
    137  SD        40.7260   -2.0000   20.1400 S.3   267  MET267     -0.1393
    138  CE        39.0350   -1.7670   19.3480 C.3   267  MET267      0.0692
    139  N         46.3010   -3.5100   21.7620 N.3   278  SER278     -0.1202
    140  CA        45.3210   -3.2590   20.7170 C.3   278  SER278      0.2020
    141  C         45.8480   -3.5730   19.3000 C.2   278  SER278      0.2618
    142  O         45.0780   -4.0300   18.4580 O.2   278  SER278     -0.2717
    143  CB        44.8150   -1.8020   20.7910 C.3   278  SER278      0.2103
    144  OG        44.0060   -1.6240   21.9480 O.3   278  SER278     -0.2182
    145  N         47.1170   -3.3120   19.0160 N.am  279  GLN279     -0.1979
    146  CA        47.6610   -3.6520   17.6850 C.3   279  GLN279      0.1601
    147  C         47.8450   -5.1720   17.5580 C.2   279  GLN279      0.2287
    148  O         47.6180   -5.7400   16.4900 O.2   279  GLN279     -0.2864
    149  CB        48.9910   -2.9510   17.4100 C.3   279  GLN279      0.0394
    150  CG        48.9040   -1.4940   16.9780 C.3   279  GLN279      0.0908
    151  CD        47.8730   -1.2290   15.9020 C.2   279  GLN279      0.2608
    152  OE1       47.9200   -1.8360   14.8430 O.2   279  GLN279     -0.2717
    153  NE2       46.9570   -0.3050   16.1580 N.am  279  GLN279     -0.0878
    154  N         44.4710   -6.4420   16.8940 N.3   282  PHE282     -0.1241
    155  CA        44.1220   -6.0150   15.5450 C.3   282  PHE282      0.1605
    156  C         44.7380   -6.9580   14.4940 C.2   282  PHE282      0.2264
    157  O         44.0530   -7.4330   13.6010 O.2   282  PHE282     -0.2867
    158  CB        44.6300   -4.5890   15.3210 C.3   282  PHE282      0.0534
    159  CG        44.1920   -3.9600   14.0160 C.ar  282  PHE282     -0.0203
    160  CD1       42.8660   -4.0260   13.5960 C.ar  282  PHE282     -0.0042
    161  CD2       45.1040   -3.2550   13.2440 C.ar  282  PHE282     -0.0042
    162  CE1       42.4730   -3.4180   12.3970 C.ar  282  PHE282     -0.0003
    163  CE2       44.7240   -2.6440   12.0610 C.ar  282  PHE282     -0.0003
    164  CZ        43.4080   -2.7250   11.6380 C.ar  282  PHE282     -0.0000
@<TRIPOS>BOND
     1    47    48    1
     2    26    25    2
     3    25    24    1
     4    48    51    1
     5    48    49    1
     6    51    52    1
     7    23    24    1
     8    24    27    1
     9    52    54   ar
    10    52    53   ar
    11    49    55   am
    12    49    50    2
    13    32    30   ar
    14    32    31   ar
    15    30    28   ar
    16    55    56    1
    17    31    29   ar
    18    28    29   ar
    19    28    27    1
    20    94    96   ar
    21    94    92   ar
    22    57    56    1
    23    57    58    2
    24    96    95   ar
    25    56    59    1
    26    59    60    1
    27    63    64    1
    28    92    91   ar
    29    92    90   ar
    30    70    68   am
    31    60    61    1
    32    60    62    1
    33    91    89   ar
    34    16    15    2
    35    15    14    1
    36    95    93   ar
    37    64    65    1
    38    64    67    1
    39    39    40    1
    40    14    17    1
    41    14    13    1
    42    20    18   ar
    43    20    22   ar
    44    90    93   ar
    45    90    88   ar
    46    68    67    1
    47    68    69    2
    48    89    88   ar
    49     4     3    2
    50    17    18    1
    51    12    11    1
    52    65    66    2
    53    40    41    1
    54    40    43    1
    55    18    19   ar
    56    10    11   ar
    57    10     8   ar
    58    45    44    1
    59    45    46    1
    60    22    21   ar
    61    88    87    1
    62    11     9   ar
    63    41    42    2
    64    13     3   am
    65     3     2    1
    66    44    43    1
    67     8     6   ar
    68     9     7   ar
    69    71    72    1
    70    19    21   ar
    71    87    84    1
    72     6     7   ar
    73     6     5    1
    74     2     5    1
    75     2     1    1
    76    72    75    1
    77    72    73    1
    78    75    76    1
    79    84    83    1
    80    84    85    1
    81   164   163   ar
    82   164   162   ar
    83    76    77   ar
    84    76    78   ar
    85    77    79   ar
    86   163   161   ar
    87    73    74    2
    88   162   160   ar
    89    78    80   ar
    90    85    86    2
    91    85    97   am
    92    79    81   ar
    93   111   109    1
    94   161   159   ar
    95    80    81   ar
    96    35    34    1
    97    35    36    2
    98    81    82    1
    99    97    98    1
   100   160   159   ar
   101   157   156    2
   102    34    33    1
   103    34    37    1
   104   109   108    1
   105   108   105    1
   106   108   110    1
   107   159   158    1
   108   104   105    1
   109   156   155    1
   110   105   106    1
   111    37    38    1
   112   152   151    2
   113    98   101    1
   114    98    99    1
   115   102   101    1
   116   128   130   ar
   117   128   126   ar
   118   158   155    1
   119   130   129   ar
   120   155   154    1
   121   101   103    1
   122    99   100    2
   123   151   153   am
   124   151   150    1
   125   106   107    2
   126   106   112   am
   127   126   125   ar
   128   148   147    2
   129   129   127   ar
   130   112   113    1
   131   150   149    1
   132   149   146    1
   133   125   127   ar
   134   125   124    1
   135   147   146    1
   136   120   121    1
   137   146   145    1
   138   119   118    1
   139   113   114    1
   140   113   116    1
   141   142   141    2
   142   121   124    1
   143   121   122    1
   144   114   115    2
   145   145   141   am
   146   117   116    1
   147   117   118    1
   148   141   140    1
   149   138   137    1
   150   122   123    2
   151   137   136    1
   152   140   143    1
   153   140   139    1
   154   143   144    1
   155   135   136    1
   156   135   132    1
   157   134   133    2
   158   133   132    1
   159   132   131    1
