@<TRIPOS>MOLECULE
tmp/1xm6B00.pdb
 174 169 0 0 0
SMALL
GASTEIGER

@<TRIPOS>ATOM
      1  N         88.9040   10.6670   11.3930 N.3    70  TYR70      -0.1227
      2  CA        89.1180    9.5180   10.5280 C.3    70  TYR70       0.1736
      3  C         88.4290    9.6240    9.1670 C.2    70  TYR70       0.2595
      4  O         89.0950    9.4870    8.1440 O.2    70  TYR70      -0.2718
      5  CB        88.6970    8.2210   11.2270 C.3    70  TYR70       0.0548
      6  CG        88.9720    6.9830   10.4110 C.ar   70  TYR70      -0.0200
      7  CD1       90.1540    6.2720   10.5620 C.ar   70  TYR70      -0.0009
      8  CD2       88.0290    6.5150    9.4730 C.ar   70  TYR70      -0.0009
      9  CE1       90.3970    5.1240    9.8280 C.ar   70  TYR70       0.0417
     10  CE2       88.2690    5.3780    8.7330 C.ar   70  TYR70       0.0417
     11  CZ        89.4550    4.6990    8.8840 C.ar   70  TYR70       0.1957
     12  OH        89.6890    3.5700    8.1220 O.3    70  TYR70      -0.2866
     13  N         87.1170    9.8600    9.1760 N.am   71  HIS71      -0.1975
     14  CA        86.2900    9.9000    7.9720 C.3    71  HIS71       0.1656
     15  C         86.3910   11.2400    7.2290 C.2    71  HIS71       0.2291
     16  O         85.3900   11.9070    6.9320 O.2    71  HIS71      -0.2864
     17  CB        84.8260    9.5060    8.2540 C.3    71  HIS71       0.0771
     18  CG        84.6610    8.0870    8.7020 C.ar   71  HIS71       0.0820
     19  ND1       84.4650    7.7460   10.0230 N.ar   71  HIS71      -0.2267
     20  CD2       84.6520    6.9250    8.0120 C.ar   71  HIS71       0.1154
     21  CE1       84.3870    6.4320   10.1290 C.ar   71  HIS71       0.1986
     22  NE2       84.5010    5.9090    8.9250 N.ar   71  HIS71      -0.2212
     23  N         78.7100   -1.4220    7.7820 N.3   183  MET183     -0.1245
     24  CA        79.1950   -2.5620    8.5810 C.3   183  MET183      0.1570
     25  C         78.0760   -3.4840    9.0820 C.2   183  MET183      0.2261
     26  O         78.3390   -4.6400    9.4160 O.2   183  MET183     -0.2867
     27  CB        80.0550   -2.0930    9.7640 C.3   183  MET183      0.0387
     28  CG        81.5250   -1.8760    9.4260 C.3   183  MET183      0.0595
     29  SD        82.4190   -3.3920    9.0030 S.3   183  MET183     -0.1393
     30  CE        82.0480   -4.4230   10.3130 C.3   183  MET183      0.0692
     31  N         87.9720   -0.6920    2.3820 N.3   228  ASP228     -0.1225
     32  CA        87.5050    0.0830    3.5380 C.3   228  ASP228      0.1805
     33  C         88.0540   -0.4980    4.8530 C.2   228  ASP228      0.2597
     34  O         88.3710    0.2530    5.7740 O.2   228  ASP228     -0.2718
     35  CB        85.9720    0.1090    3.5630 C.3   228  ASP228      0.1424
     36  CG        85.3890    1.1960    4.4600 C.2   228  ASP228      0.3668
     37  OD1       84.3430    0.9140    5.1230 O.co2 228  ASP228     -0.2456
     38  OD2       85.8530    2.3590    4.5730 O.co2 228  ASP228     -0.2456
     39  N         88.1780   -1.8240    4.9260 N.am  229  LEU229     -0.1979
     40  CA        88.7240   -2.5150    6.1000 C.3   229  LEU229      0.1596
     41  C         90.1850   -2.9500    5.8540 C.2   229  LEU229      0.2287
     42  O         90.6060   -4.0200    6.3010 O.2   229  LEU229     -0.2864
     43  CB        87.8960   -3.7560    6.4150 C.3   229  LEU229      0.0297
     44  CG        86.3820   -3.6420    6.6000 C.3   229  LEU229      0.0022
     45  CD1       85.8410   -4.7940    7.3870 C.3   229  LEU229      0.0001
     46  CD2       85.9630   -2.3380    7.1820 C.3   229  LEU229      0.0001
     47  N         93.0410   -1.0120    6.6520 N.3   231  ASN231     -0.1240
     48  CA        94.0310   -0.3520    7.5160 C.3   231  ASN231      0.1653
     49  C         94.9870   -1.3480    8.1890 C.2   231  ASN231      0.2266
     50  O         96.2000   -1.1740    8.1150 O.2   231  ASN231     -0.2867
     51  CB        93.3760    0.5300    8.6080 C.3   231  ASN231      0.1155
     52  CG        92.5570    1.7110    8.0550 C.2   231  ASN231      0.2627
     53  OD1       91.7200    2.2410    8.7760 O.2   231  ASN231     -0.2716
     54  ND2       92.8070    2.1340    6.8100 N.am  231  ASN231     -0.0877
     55  N         99.1900    1.6640    9.7470 N.3   239  TYR239     -0.1241
     56  CA        98.1120    1.1390   10.5390 C.3   239  TYR239      0.1605
     57  C         98.0070    1.8780   11.8700 C.2   239  TYR239      0.2264
     58  O         96.9180    2.2710   12.2680 O.2   239  TYR239     -0.2867
     59  CB        98.3070   -0.3710   10.7020 C.3   239  TYR239      0.0534
     60  CG        97.3130   -1.1050   11.5640 C.ar  239  TYR239     -0.0201
     61  CD1       96.0140   -0.6440   11.7570 C.ar  239  TYR239     -0.0009
     62  CD2       97.6720   -2.2990   12.1700 C.ar  239  TYR239     -0.0009
     63  CE1       95.1220   -1.3400   12.5650 C.ar  239  TYR239      0.0417
     64  CE2       96.7910   -2.9950   12.9770 C.ar  239  TYR239      0.0417
     65  CZ        95.5240   -2.5110   13.1760 C.ar  239  TYR239      0.1957
     66  OH        94.6700   -3.2420   13.9670 O.3   239  TYR239     -0.2866
     67  N         96.2400    5.1920   11.3250 N.3   242  TRP242     -0.1227
     68  CA        94.8130    4.9480   11.1390 C.3   242  TRP242      0.1737
     69  C         94.0940    4.6690   12.4710 C.2   242  TRP242      0.2596
     70  O         93.0000    5.1560   12.6880 O.2   242  TRP242     -0.2718
     71  CB        94.5860    3.7660   10.2000 C.3   242  TRP242      0.0564
     72  CG        94.9740    4.0570    8.7920 C.ar  242  TRP242      0.0003
     73  CD1       95.8290    3.3410    8.0020 C.ar  242  TRP242      0.0946
     74  CD2       94.5240    5.1570    8.0020 C.ar  242  TRP242      0.0152
     75  NE1       95.9370    3.9380    6.7710 N.ar  242  TRP242     -0.2442
     76  CE2       95.1530    5.0570    6.7450 C.ar  242  TRP242      0.0810
     77  CE3       93.6790    6.2470    8.2430 C.ar  242  TRP242      0.0012
     78  CZ2       94.9210    5.9680    5.7170 C.ar  242  TRP242      0.0191
     79  CZ3       93.4580    7.1550    7.2260 C.ar  242  TRP242      0.0001
     80  CH2       94.0800    7.0140    5.9750 C.ar  242  TRP242      0.0015
     81  N         94.7070    3.8720   13.3440 N.am  243  THR243     -0.1953
     82  CA        94.1080    3.5490   14.6510 C.3   243  THR243      0.1897
     83  C         93.9320    4.7980   15.5210 C.2   243  THR243      0.2313
     84  O         92.8830    4.9950   16.1580 O.2   243  THR243     -0.2863
     85  CB        94.9810    2.5170   15.3860 C.3   243  THR243      0.1794
     86  OG1       94.9110    1.2590   14.7000 O.3   243  THR243     -0.2208
     87  CG2       94.4440    2.2240   16.8190 C.3   243  THR243      0.0378
     88  N         90.8430    6.7100   14.0170 N.3   246  ILE246     -0.1231
     89  CA        89.5200    6.1470   14.3410 C.3   246  ILE246      0.1692
     90  C         89.1950    6.2740   15.8350 C.2   246  ILE246      0.2591
     91  O         88.0530    6.5570   16.1880 O.2   246  ILE246     -0.2718
     92  CB        89.3540    4.6720   13.8290 C.3   246  ILE246      0.0266
     93  CG1       87.8780    4.2680   13.8050 C.3   246  ILE246      0.0019
     94  CG2       90.0850    3.6850   14.7210 C.3   246  ILE246      0.0020
     95  CD1       87.0660    4.9090   12.7340 C.3   246  ILE246      0.0001
     96  N         90.1930    6.1090   16.7070 N.am  247  MET247     -0.1979
     97  CA        89.9580    6.2190   18.1590 C.3   247  MET247      0.1605
     98  C         89.6570    7.6580   18.5670 C.2   247  MET247      0.2287
     99  O         88.8190    7.8940   19.4390 O.2   247  MET247     -0.2864
    100  CB        91.1350    5.6740   18.9750 C.3   247  MET247      0.0413
    101  CG        91.2970    4.1780   18.9010 C.3   247  MET247      0.0598
    102  SD        89.8260    3.2390   19.3240 S.3   247  MET247     -0.1393
    103  CE        89.2990    2.8720   17.9700 C.3   247  MET247      0.0692
    104  N         86.0330    8.0380   17.4930 N.3   250  PHE250     -0.1241
    105  CA        85.1460    7.2720   18.3520 C.3   250  PHE250      0.1605
    106  C         85.0500    7.9570   19.7320 C.2   250  PHE250      0.2264
    107  O         83.9620    8.1120   20.2830 O.2   250  PHE250     -0.2867
    108  CB        85.6800    5.8400   18.5130 C.3   250  PHE250      0.0534
    109  CG        85.3460    4.8940   17.3700 C.ar  250  PHE250     -0.0203
    110  CD1       84.6770    5.3050   16.2280 C.ar  250  PHE250     -0.0042
    111  CD2       85.7520    3.5720   17.4510 C.ar  250  PHE250     -0.0042
    112  CE1       84.3940    4.4000   15.2100 C.ar  250  PHE250     -0.0003
    113  CE2       85.4600    2.6710   16.4480 C.ar  250  PHE250     -0.0003
    114  CZ        84.7850    3.0820   15.3300 C.ar  250  PHE250     -0.0000
    115  N         83.2440    1.1440   23.2150 N.3   267  MET267     -0.1245
    116  CA        84.4660    1.4080   22.4710 C.3   267  MET267      0.1570
    117  C         84.6610    2.8740   22.0220 C.2   267  MET267      0.2261
    118  O         85.6790    3.1570   21.3880 O.2   267  MET267     -0.2867
    119  CB        84.5640    0.4790   21.2370 C.3   267  MET267      0.0387
    120  CG        85.0540   -0.9680   21.5280 C.3   267  MET267      0.0595
    121  SD        85.3700   -1.9490   19.9740 S.3   267  MET267     -0.1393
    122  CE        83.8310   -1.6230   19.0670 C.3   267  MET267      0.0692
    123  N         90.9070   -3.3350   21.4180 N.3   277  SER277     -0.1202
    124  CA        89.9270   -3.0580   20.3650 C.3   277  SER277      0.2020
    125  C         90.4320   -3.4340   18.9660 C.2   277  SER277      0.2618
    126  O         89.6670   -3.9560   18.1470 O.2   277  SER277     -0.2717
    127  CB        89.4720   -1.5970   20.4120 C.3   277  SER277      0.2103
    128  OG        88.7010   -1.3740   21.6020 O.3   277  SER277     -0.2182
    129  N         91.7040   -3.1810   18.7000 N.am  278  GLN278     -0.1979
    130  CA        92.2830   -3.5320   17.4090 C.3   278  GLN278      0.1601
    131  C         92.4600   -5.0440   17.3160 C.2   278  GLN278      0.2287
    132  O         92.2390   -5.6280   16.2690 O.2   278  GLN278     -0.2864
    133  CB        93.6210   -2.8140   17.2010 C.3   278  GLN278      0.0394
    134  CG        93.4950   -1.3540   16.8290 C.3   278  GLN278      0.0908
    135  CD        92.4940   -1.1110   15.6950 C.2   278  GLN278      0.2608
    136  OE1       92.5630   -1.7680   14.6600 O.2   278  GLN278     -0.2717
    137  NE2       91.5740   -0.1740   15.8920 N.am  278  GLN278     -0.0878
    138  N         89.0230   -6.3490   16.5930 N.3   281  PHE281     -0.1241
    139  CA        88.6730   -5.9380   15.2280 C.3   281  PHE281      0.1605
    140  C         89.3100   -6.8860   14.1890 C.2   281  PHE281      0.2264
    141  O         88.6490   -7.3560   13.2850 O.2   281  PHE281     -0.2867
    142  CB        89.1410   -4.4860   15.0490 C.3   281  PHE281      0.0534
    143  CG        88.8080   -3.8480   13.7170 C.ar  281  PHE281     -0.0203
    144  CD1       87.5340   -3.9110   13.1760 C.ar  281  PHE281     -0.0042
    145  CD2       89.7790   -3.1110   13.0420 C.ar  281  PHE281     -0.0042
    146  CE1       87.2520   -3.2820   11.9570 C.ar  281  PHE281     -0.0003
    147  CE2       89.5080   -2.4790   11.8410 C.ar  281  PHE281     -0.0003
    148  CZ        88.2370   -2.5670   11.3010 C.ar  281  PHE281     -0.0000
    149  N         80.8000   -9.6550   17.6490 N.3   326  PHE326     -0.1241
    150  CA        81.6650   -8.4740   17.6020 C.3   326  PHE326      0.1605
    151  C         81.1540   -7.4280   16.6160 C.2   326  PHE326      0.2264
    152  O         81.3210   -6.2330   16.8480 O.2   326  PHE326     -0.2867
    153  CB        83.1090   -8.8380   17.2640 C.3   326  PHE326      0.0534
    154  CG        84.0700   -7.7030   17.4680 C.ar  326  PHE326     -0.0203
    155  CD1       84.6400   -7.4730   18.7050 C.ar  326  PHE326     -0.0042
    156  CD2       84.3780   -6.8470   16.4250 C.ar  326  PHE326     -0.0042
    157  CE1       85.5150   -6.4180   18.8900 C.ar  326  PHE326     -0.0003
    158  CE2       85.2520   -5.7840   16.6010 C.ar  326  PHE326     -0.0003
    159  CZ        85.8220   -5.5710   17.8300 C.ar  326  PHE326     -0.0000
    160  N         80.3450   -3.3410   17.5000 N.3   330  LEU330     -0.1231
    161  CA        80.9130   -2.2340   16.7300 C.3   330  LEU330      0.1693
    162  C         79.8270   -1.3210   16.1470 C.2   330  LEU330      0.2592
    163  O         79.9650   -0.1010   16.1740 O.2   330  LEU330     -0.2718
    164  CB        81.8180   -2.7700   15.6120 C.3   330  LEU330      0.0284
    165  CG        82.6160   -1.7460   14.7990 C.3   330  LEU330      0.0019
    166  CD1       83.6330   -1.0350   15.6580 C.3   330  LEU330      0.0001
    167  CD2       83.3100   -2.4380   13.6440 C.3   330  LEU330      0.0001
    168  N         78.7550   -1.9120   15.6250 N.am  331  THR331     -0.1953
    169  CA        77.6470   -1.1400   15.0460 C.3   331  THR331      0.1897
    170  C         76.6470   -0.7410   16.1280 C.2   331  THR331      0.2313
    171  O         75.9600    0.2740   16.0030 O.2   331  THR331     -0.2863
    172  CB        76.9120   -1.9310   13.9300 C.3   331  THR331      0.1794
    173  OG1       76.3220   -3.1200   14.4720 O.3   331  THR331     -0.2208
    174  CG2       77.8800   -2.4280   12.8640 C.3   331  THR331      0.0378
@<TRIPOS>BOND
     1    31    32    1
     2    32    35    1
     3    32    33    1
     4    35    36    1
     5    36    38   ar
     6    36    37   ar
     7    33    39   am
     8    33    34    2
     9    39    40    1
    10    78    80   ar
    11    78    76   ar
    12    41    40    1
    13    41    42    2
    14    80    79   ar
    15    40    43    1
    16    43    44    1
    17    44    46    1
    18    44    45    1
    19    47    48    1
    20    76    75   ar
    21    76    74   ar
    22    75    73   ar
    23    54    52   am
    24    16    15    2
    25    79    77   ar
    26    15    14    1
    27    48    49    1
    28    48    51    1
    29    23    24    1
    30    14    17    1
    31    14    13    1
    32    74    77   ar
    33    74    72   ar
    34    73    72   ar
    35    20    18   ar
    36    20    22   ar
    37    52    51    1
    38    52    53    2
    39    50    49    2
    40    12    11    1
    41     4     3    2
    42    17    18    1
    43    24    25    1
    44    24    27    1
    45    18    19   ar
    46    10    11   ar
    47    10     8   ar
    48    72    71    1
    49    11     9   ar
    50    22    21   ar
    51    29    28    1
    52    29    30    1
    53    25    26    2
    54     3    13   am
    55     3     2    1
    56    28    27    1
    57     8     6   ar
    58    55    56    1
    59     9     7   ar
    60    19    21   ar
    61    71    68    1
    62     6     7   ar
    63     6     5    1
    64     2     5    1
    65     2     1    1
    66    56    59    1
    67    56    57    1
    68    59    60    1
    69    68    67    1
    70    68    69    1
    71   148   147   ar
    72   148   146   ar
    73    60    61   ar
    74    60    62   ar
    75    61    63   ar
    76   147   145   ar
    77    57    58    2
    78   146   144   ar
    79    62    64   ar
    80    69    70    2
    81    69    81   am
    82    63    65   ar
    83    95    93    1
    84   174   172    1
    85    64    65   ar
    86   145   143   ar
    87   144   143   ar
    88    65    66    1
    89   141   140    2
    90    81    82    1
    91   167   165    1
    92   143   142    1
    93    93    92    1
    94    92    89    1
    95    92    94    1
    96   172   173    1
    97   172   169    1
    98    88    89    1
    99   140   139    1
   100    89    90    1
   101    82    85    1
   102    82    83    1
   103   136   135    2
   104    86    85    1
   105   165   164    1
   106   165   166    1
   107   169   168    1
   108   169   170    1
   109   142   139    1
   110   112   114   ar
   111   112   110   ar
   112   139   138    1
   113   114   113   ar
   114    85    87    1
   115    83    84    2
   116   164   161    1
   117   168   162   am
   118   135   137   am
   119   135   134    1
   120    90    91    2
   121    90    96   am
   122   171   170    2
   123   162   163    2
   124   162   161    1
   125   110   109   ar
   126   132   131    2
   127   156   158   ar
   128   156   154   ar
   129   113   111   ar
   130   158   159   ar
   131   151   152    2
   132   151   150    1
   133    96    97    1
   134   161   160    1
   135   134   133    1
   136   133   130    1
   137   153   154    1
   138   153   150    1
   139   131   130    1
   140   109   111   ar
   141   109   108    1
   142   130   129    1
   143   154   155   ar
   144   104   105    1
   145   150   149    1
   146   159   157   ar
   147   103   102    1
   148   126   125    2
   149    97    98    1
   150    97   100    1
   151   105   108    1
   152   105   106    1
   153    98    99    2
   154   129   125   am
   155   155   157   ar
   156   101   100    1
   157   101   102    1
   158   125   124    1
   159   122   121    1
   160   106   107    2
   161   121   120    1
   162   124   127    1
   163   124   123    1
   164   127   128    1
   165   119   120    1
   166   119   116    1
   167   118   117    2
   168   117   116    1
   169   116   115    1
