@<TRIPOS>MOLECULE
tmp/1xmdB00.pdb
 123 115 0 0 0
SMALL
GASTEIGER

@<TRIPOS>ATOM
      1  N         36.2810   40.4130  108.4070 N.3    75  TRP75      -0.1241
      2  CA        37.7370   40.5510  108.3830 C.3    75  TRP75       0.1605
      3  C         38.2680   41.0240  109.7340 C.2    75  TRP75       0.2264
      4  O         39.1700   40.4140  110.3070 O.2    75  TRP75      -0.2867
      5  CB        38.1520   41.5290  107.2800 C.3    75  TRP75       0.0550
      6  CG        39.6440   41.6930  107.1430 C.ar   75  TRP75       0.0003
      7  CD1       40.3690   42.8180  107.4020 C.ar   75  TRP75       0.0946
      8  CD2       40.5870   40.6930  106.7250 C.ar   75  TRP75       0.0152
      9  NE1       41.7100   42.5860  107.1710 N.ar   75  TRP75      -0.2442
     10  CE2       41.8720   41.2900  106.7550 C.ar   75  TRP75       0.0810
     11  CE3       40.4720   39.3500  106.3270 C.ar   75  TRP75       0.0012
     12  CZ2       43.0360   40.5940  106.4020 C.ar   75  TRP75       0.0191
     13  CZ3       41.6380   38.6500  105.9720 C.ar   75  TRP75       0.0001
     14  CH2       42.9000   39.2790  106.0130 C.ar   75  TRP75       0.0015
     15  N         40.3420   37.9930  111.2550 N.3    79  ALA79      -0.1231
     16  CA        41.7730   38.2460  111.1120 C.3    79  ALA79       0.1694
     17  C         42.4110   38.8660  112.3540 C.2    79  ALA79       0.2592
     18  O         43.6250   38.7570  112.5470 O.2    79  ALA79      -0.2718
     19  CB        42.0250   39.1570  109.9090 C.3    79  ALA79       0.0304
     20  N         41.6130   39.5120  113.1990 N.am   80  TYR80      -0.1976
     21  CA        42.1850   40.1740  114.3740 C.3    80  TYR80       0.1639
     22  C         41.5460   39.9910  115.7460 C.2    80  TYR80       0.2290
     23  O         42.1630   39.4320  116.6540 O.2    80  TYR80      -0.2864
     24  CB        42.2810   41.6870  114.1190 C.3    80  TYR80       0.0560
     25  CG        43.0650   42.0590  112.8800 C.ar   80  TYR80      -0.0198
     26  CD1       44.4430   41.8390  112.8060 C.ar   80  TYR80      -0.0009
     27  CD2       42.4220   42.5820  111.7610 C.ar   80  TYR80      -0.0009
     28  CE1       45.1550   42.1260  111.6410 C.ar   80  TYR80       0.0417
     29  CE2       43.1250   42.8690  110.5980 C.ar   80  TYR80       0.0417
     30  CZ        44.4900   42.6360  110.5410 C.ar   80  TYR80       0.1957
     31  OH        45.1680   42.8840  109.3770 O.3    80  TYR80      -0.2866
     32  N         41.2530   36.3600  117.2910 N.3    83  VAL83      -0.1245
     33  CA        42.5280   35.6860  117.5120 C.3    83  VAL83       0.1561
     34  C         42.9300   35.8040  118.9840 C.2    83  VAL83       0.2260
     35  O         42.8980   36.8830  119.5640 O.2    83  VAL83      -0.2867
     36  CB        43.6180   36.2810  116.5730 C.3    83  VAL83       0.0252
     37  CG1       44.9660   35.5760  116.7850 C.3    83  VAL83       0.0019
     38  CG2       43.1720   36.1270  115.1170 C.3    83  VAL83       0.0019
     39  N         46.0510   34.6060  120.4700 N.3    85  ILE85      -0.1245
     40  CA        47.4680   34.7500  120.7920 C.3    85  ILE85       0.1561
     41  C         47.8090   36.1920  121.1640 C.2    85  ILE85       0.2260
     42  O         47.0980   37.1220  120.7880 O.2    85  ILE85      -0.2867
     43  CB        48.3510   34.3260  119.6090 C.3    85  ILE85       0.0252
     44  CG1       48.1300   35.2760  118.4240 C.3    85  ILE85       0.0019
     45  CG2       48.0410   32.8840  119.2400 C.3    85  ILE85       0.0019
     46  CD1       49.0180   34.9800  117.2260 C.3    85  ILE85       0.0001
     47  N         52.8390   39.5790  118.3340 N.3    90  ASN90      -0.1225
     48  CA        52.5330   38.8320  117.1180 C.3    90  ASN90       0.1785
     49  C         51.6890   39.4530  116.0130 C.2    90  ASN90       0.2597
     50  O         51.6340   38.9050  114.9140 O.2    90  ASN90      -0.2718
     51  CB        51.9050   37.5010  117.5240 C.3    90  ASN90       0.1169
     52  CG        52.7780   36.7250  118.4920 C.2    90  ASN90       0.2627
     53  OD1       53.8530   36.2440  118.1270 O.2    90  ASN90      -0.2716
     54  ND2       52.3290   36.6120  119.7390 N.am   90  ASN90      -0.0877
     55  N         51.0460   40.5810  116.2810 N.am   91  VAL91      -0.1980
     56  CA        50.1800   41.1940  115.2830 C.3    91  VAL91       0.1595
     57  C         50.4450   42.6870  115.0780 C.2    91  VAL91       0.2287
     58  O         50.3740   43.1770  113.9510 O.2    91  VAL91      -0.2864
     59  CB        48.6850   40.9610  115.6740 C.3    91  VAL91       0.0276
     60  CG1       47.7560   41.3660  114.5300 C.3    91  VAL91       0.0022
     61  CG2       48.4690   39.4790  116.0340 C.3    91  VAL91       0.0022
     62  N         47.0740   46.3530  114.7720 N.3   317  HIS317     -0.1241
     63  CA        46.7400   46.1290  113.3730 C.3   317  HIS317      0.1621
     64  C         45.2450   45.9470  113.1340 C.2   317  HIS317      0.2264
     65  O         44.7790   46.0280  112.0010 O.2   317  HIS317     -0.2867
     66  CB        47.4710   44.8870  112.8490 C.3   317  HIS317      0.0745
     67  CG        47.6840   44.8920  111.3690 C.ar  317  HIS317      0.0817
     68  ND1       46.9260   45.6610  110.5120 N.ar  317  HIS317     -0.2268
     69  CD2       48.5590   44.2120  110.5910 C.ar  317  HIS317      0.1154
     70  CE1       47.3250   45.4560  109.2680 C.ar  317  HIS317      0.1986
     71  NE2       48.3150   44.5810  109.2890 N.ar  317  HIS317     -0.2212
     72  N         45.2570   49.5990  108.6080 N.3   321  ASP321     -0.1239
     73  CA        46.4870   49.0920  108.0390 C.3   321  ASP321      0.1674
     74  C         47.5730   50.1520  108.1660 C.2   321  ASP321      0.2266
     75  O         47.3120   51.2640  108.6320 O.2   321  ASP321     -0.2867
     76  CB        46.2320   48.6460  106.6000 C.3   321  ASP321      0.1410
     77  CG        45.1070   47.6030  106.5200 C.2   321  ASP321      0.3668
     78  OD1       45.1700   46.6000  107.2560 O.co2 321  ASP321     -0.2456
     79  OD2       44.1540   47.7890  105.7370 O.co2 321  ASP321     -0.2456
     80  N         52.4320   36.0520  100.5270 N.3   429  TYR429     -0.1241
     81  CA        51.2910   36.9290  100.7010 C.3   429  TYR429      0.1605
     82  C         51.7550   38.3680  100.5430 C.2   429  TYR429      0.2264
     83  O         52.6400   38.8090  101.2760 O.2   429  TYR429     -0.2867
     84  CB        50.7140   36.7420  102.1070 C.3   429  TYR429      0.0534
     85  CG        49.6020   37.6970  102.4910 C.ar  429  TYR429     -0.0201
     86  CD1       49.8130   39.0810  102.5580 C.ar  429  TYR429     -0.0009
     87  CD2       48.3390   37.2110  102.8220 C.ar  429  TYR429     -0.0009
     88  CE1       48.7820   39.9500  102.9460 C.ar  429  TYR429      0.0417
     89  CE2       47.3150   38.0610  103.2080 C.ar  429  TYR429      0.0417
     90  CZ        47.5360   39.4210  103.2710 C.ar  429  TYR429      0.1957
     91  OH        46.5100   40.2280  103.6810 O.3   429  TYR429     -0.2866
     92  N         50.2440   42.3270  100.3570 N.3   431  THR431     -0.1218
     93  CA        49.0920   43.1810  100.5560 C.3   431  THR431      0.1862
     94  C         48.7700   44.0200   99.3160 C.2   431  THR431      0.2287
     95  O         49.6620   44.6160   98.7060 O.2   431  THR431     -0.2866
     96  CB        49.3310   44.1840  101.7280 C.3   431  THR431      0.1770
     97  OG1       49.5010   43.4670  102.9550 O.3   431  THR431     -0.2211
     98  CG2       48.1530   45.1480  101.8600 C.3   431  THR431      0.0375
     99  N         42.1500   45.4190  102.5650 N.3   442  THR442     -0.1218
    100  CA        43.1320   44.6640  101.8050 C.3   442  THR442      0.1862
    101  C         42.6330   43.3910  101.1270 C.2   442  THR442      0.2287
    102  O         41.5750   42.8370  101.4650 O.2   442  THR442     -0.2866
    103  CB        44.2980   44.2370  102.7270 C.3   442  THR442      0.1770
    104  OG1       43.7930   43.3320  103.7210 O.3   442  THR442     -0.2211
    105  CG2       44.9050   45.4520  103.4390 C.3   442  THR442      0.0375
    106  N         46.1620   31.3540  106.5960 N.3   527  GLY527     -0.1225
    107  CA        47.2010   32.1120  107.2740 C.3   527  GLY527      0.1811
    108  C         48.4840   31.3020  107.4010 C.2   527  GLY527      0.2280
    109  O         49.1280   31.2940  108.4570 O.2   527  GLY527     -0.2866
    110  N         55.3050   36.7000  104.3800 N.3   532  SER532     -0.1217
    111  CA        54.2610   37.6750  104.6950 C.3   532  SER532      0.1889
    112  C         54.8700   39.0300  104.3520 C.2   532  SER532      0.2288
    113  O         55.8010   39.5000  105.0210 O.2   532  SER532     -0.2866
    114  CB        53.8920   37.6000  106.1800 C.3   532  SER532      0.2089
    115  OG        52.8420   38.5000  106.4790 O.3   532  SER532     -0.2183
    116  N         53.9920   35.2620  109.7850 N.3   548  MET548     -0.1245
    117  CA        52.6240   34.7690  109.8640 C.3   548  MET548      0.1570
    118  C         52.6070   33.3360  110.4030 C.2   548  MET548      0.2261
    119  O         51.6170   32.9010  110.9940 O.2   548  MET548     -0.2867
    120  CB        51.9900   34.8040  108.4680 C.3   548  MET548      0.0387
    121  CG        50.5090   34.4820  108.4330 C.3   548  MET548      0.0595
    122  SD        49.8690   34.4180  106.7400 S.3   548  MET548     -0.1393
    123  CE        49.9670   36.1070  106.3060 C.3   548  MET548      0.0692
@<TRIPOS>BOND
     1    95    94    2
     2    94    93    1
     3    92    93    1
     4    80    81    1
     5    82    81    1
     6    82    83    2
     7    93    96    1
     8    81    84    1
     9   101   102    2
    10   101   100    1
    11    96    98    1
    12    96    97    1
    13   100    99    1
    14   100   103    1
    15    84    85    1
    16    85    86   ar
    17    85    87   ar
    18    86    88   ar
    19   103   105    1
    20   103   104    1
    21    87    89   ar
    22    88    90   ar
    23    89    90   ar
    24    90    91    1
    25   112   111    1
    26   112   113    2
    27   110   111    1
    28   111   114    1
    29    79    77   ar
    30    13    14   ar
    31    13    11   ar
    32    14    12   ar
    33   114   115    1
    34   123   122    1
    35    11     8   ar
    36    12    10   ar
    37    77    76    1
    38    77    78   ar
    39   106   107    1
    40    76    73    1
    41     8    10   ar
    42     8     6   ar
    43   122   121    1
    44    10     9   ar
    45     6     5    1
    46     6     7   ar
    47     9     7   ar
    48   107   108    1
    49     5     2    1
    50   108   109    2
    51    73    74    1
    52    73    72    1
    53    74    75    2
    54     2     1    1
    55     2     3    1
    56   121   120    1
    57   120   117    1
    58    70    71   ar
    59    70    68   ar
    60    71    69   ar
    61    31    30    1
    62     3     4    2
    63   116   117    1
    64   117   118    1
    65    19    16    1
    66   118   119    2
    67    68    67   ar
    68    30    29   ar
    69    30    28   ar
    70    69    67   ar
    71    29    27   ar
    72    16    15    1
    73    16    17    1
    74    67    66    1
    75    28    26   ar
    76    27    25   ar
    77    65    64    2
    78    17    18    2
    79    17    20   am
    80    26    25   ar
    81    66    63    1
    82    25    24    1
    83    64    63    1
    84    20    21    1
    85    63    62    1
    86    58    57    2
    87    24    21    1
    88    21    22    1
    89    60    59    1
    90    50    49    2
    91    57    56    1
    92    38    36    1
    93    56    59    1
    94    56    55    1
    95    59    61    1
    96    22    23    2
    97    49    55   am
    98    49    48    1
    99    36    37    1
   100    36    33    1
   101    48    51    1
   102    48    47    1
   103    46    44    1
   104    32    33    1
   105    33    34    1
   106    51    52    1
   107    53    52    2
   108    44    43    1
   109    52    54   am
   110    34    35    2
   111    45    43    1
   112    43    40    1
   113    39    40    1
   114    42    41    2
   115    40    41    1
