@<TRIPOS>MOLECULE
tmp/1xmdB05.pdb
 106 100 0 0 0
SMALL
GASTEIGER

@<TRIPOS>ATOM
      1  N         36.2810   40.4130  108.4070 N.3    75  TRP75      -0.1241
      2  CA        37.7370   40.5510  108.3830 C.3    75  TRP75       0.1605
      3  C         38.2680   41.0240  109.7340 C.2    75  TRP75       0.2264
      4  O         39.1700   40.4140  110.3070 O.2    75  TRP75      -0.2867
      5  CB        38.1520   41.5290  107.2800 C.3    75  TRP75       0.0550
      6  CG        39.6440   41.6930  107.1430 C.ar   75  TRP75       0.0003
      7  CD1       40.3690   42.8180  107.4020 C.ar   75  TRP75       0.0946
      8  CD2       40.5870   40.6930  106.7250 C.ar   75  TRP75       0.0152
      9  NE1       41.7100   42.5860  107.1710 N.ar   75  TRP75      -0.2442
     10  CE2       41.8720   41.2900  106.7550 C.ar   75  TRP75       0.0810
     11  CE3       40.4720   39.3500  106.3270 C.ar   75  TRP75       0.0012
     12  CZ2       43.0360   40.5940  106.4020 C.ar   75  TRP75       0.0191
     13  CZ3       41.6380   38.6500  105.9720 C.ar   75  TRP75       0.0001
     14  CH2       42.9000   39.2790  106.0130 C.ar   75  TRP75       0.0015
     15  N         37.6540   37.8990  112.2530 N.3    78  VAL78      -0.1231
     16  CA        38.4030   36.6960  111.9570 C.3    78  VAL78       0.1692
     17  C         39.9090   36.8830  111.8480 C.2    78  VAL78       0.2591
     18  O         40.6750   36.0320  112.3090 O.2    78  VAL78      -0.2718
     19  CB        37.8530   36.0420  110.6800 C.3    78  VAL78       0.0266
     20  CG1       38.6740   34.8300  110.3160 C.3    78  VAL78       0.0020
     21  CG2       36.4010   35.6300  110.9170 C.3    78  VAL78       0.0020
     22  N         40.3420   37.9930  111.2550 N.am   79  ALA79      -0.1980
     23  CA        41.7730   38.2460  111.1120 C.3    79  ALA79       0.1597
     24  C         42.4110   38.8660  112.3540 C.2    79  ALA79       0.2287
     25  O         43.6250   38.7570  112.5470 O.2    79  ALA79      -0.2864
     26  CB        42.0250   39.1570  109.9090 C.3    79  ALA79       0.0319
     27  N         41.2530   36.3600  117.2910 N.3    83  VAL83      -0.1245
     28  CA        42.5280   35.6860  117.5120 C.3    83  VAL83       0.1561
     29  C         42.9300   35.8040  118.9840 C.2    83  VAL83       0.2260
     30  O         42.8980   36.8830  119.5640 O.2    83  VAL83      -0.2867
     31  CB        43.6180   36.2810  116.5730 C.3    83  VAL83       0.0252
     32  CG1       44.9660   35.5760  116.7850 C.3    83  VAL83       0.0019
     33  CG2       43.1720   36.1270  115.1170 C.3    83  VAL83       0.0019
     34  N         52.4320   36.0520  100.5270 N.3   429  TYR429     -0.1241
     35  CA        51.2910   36.9290  100.7010 C.3   429  TYR429      0.1605
     36  C         51.7550   38.3680  100.5430 C.2   429  TYR429      0.2264
     37  O         52.6400   38.8090  101.2760 O.2   429  TYR429     -0.2867
     38  CB        50.7140   36.7420  102.1070 C.3   429  TYR429      0.0534
     39  CG        49.6020   37.6970  102.4910 C.ar  429  TYR429     -0.0201
     40  CD1       49.8130   39.0810  102.5580 C.ar  429  TYR429     -0.0009
     41  CD2       48.3390   37.2110  102.8220 C.ar  429  TYR429     -0.0009
     42  CE1       48.7820   39.9500  102.9460 C.ar  429  TYR429      0.0417
     43  CE2       47.3150   38.0610  103.2080 C.ar  429  TYR429      0.0417
     44  CZ        47.5360   39.4210  103.2710 C.ar  429  TYR429      0.1957
     45  OH        46.5100   40.2280  103.6810 O.3   429  TYR429     -0.2866
     46  N         44.5770   39.7050   99.2490 N.3   444  THR444     -0.1218
     47  CA        45.8310   38.9810   99.1600 C.3   444  THR444      0.1862
     48  C         46.2900   38.8090   97.7130 C.2   444  THR444      0.2287
     49  O         45.5010   38.4020   96.8540 O.2   444  THR444     -0.2866
     50  CB        45.7090   37.5630   99.7340 C.3   444  THR444      0.1770
     51  OG1       45.3390   37.6300  101.1150 O.3   444  THR444     -0.2211
     52  CG2       47.0430   36.8160   99.5830 C.3   444  THR444      0.0375
     53  N         41.1920   35.5270   97.6130 N.3   494  ASP494     -0.1225
     54  CA        41.3760   35.0950   99.0040 C.3   494  ASP494      0.1805
     55  C         40.2540   35.5240   99.9540 C.2   494  ASP494      0.2597
     56  O         39.7230   34.6990  100.7000 O.2   494  ASP494     -0.2718
     57  CB        42.7360   35.5680   99.5380 C.3   494  ASP494      0.1424
     58  CG        43.8770   34.6130   99.1700 C.2   494  ASP494      0.3668
     59  OD1       44.2840   33.8040  100.0350 O.co2 494  ASP494     -0.2456
     60  OD2       44.3660   34.6600   98.0210 O.co2 494  ASP494     -0.2456
     61  N         39.8850   36.8010   99.9350 N.am  495  ARG495     -0.1979
     62  CA        38.8150   37.2720  100.8060 C.3   495  ARG495      0.1597
     63  C         37.4910   36.6130  100.4130 C.2   495  ARG495      0.2287
     64  O         36.6650   36.3160  101.2670 O.2   495  ARG495     -0.2864
     65  CB        38.6860   38.7930  100.7180 C.3   495  ARG495      0.0334
     66  CG        39.9390   39.5530  101.1510 C.3   495  ARG495      0.0492
     67  CD        40.2650   39.3990  102.6500 C.3   495  ARG495      0.2205
     68  NE        41.4730   40.1660  102.9580 N.pl3 495  ARG495     -0.0865
     69  CZ        42.7100   39.7380  102.7150 C.cat 495  ARG495      0.5346
     70  NH1       42.9110   38.5300  102.1920 N.pl3 495  ARG495      0.1354
     71  NH2       43.7420   40.5490  102.9130 N.pl3 495  ARG495      0.1354
     72  N         37.2640   33.1950  101.8360 N.3   498  LEU498     -0.1245
     73  CA        37.1030   33.3070  103.2820 C.3   498  LEU498      0.1561
     74  C         35.6230   33.5400  103.5630 C.2   498  LEU498      0.2260
     75  O         35.0580   32.9660  104.4960 O.2   498  LEU498     -0.2867
     76  CB        37.9280   34.4790  103.8430 C.3   498  LEU498      0.0270
     77  CG        37.7220   34.7840  105.3390 C.3   498  LEU498      0.0019
     78  CD1       37.9880   33.5270  106.1730 C.3   498  LEU498      0.0001
     79  CD2       38.6600   35.9160  105.7750 C.3   498  LEU498      0.0001
     80  N         44.5870   29.8660  104.9860 N.3   526  GLY526     -0.1210
     81  CA        44.4620   29.6280  106.4160 C.3   526  GLY526      0.1956
     82  C         45.5240   30.3680  107.2210 C.2   526  GLY526      0.2612
     83  O         45.7600   30.0540  108.3910 O.2   526  GLY526     -0.2717
     84  N         46.1620   31.3540  106.5960 N.am  527  GLY527     -0.1956
     85  CA        47.2010   32.1120  107.2740 C.3   527  GLY527      0.1869
     86  C         48.4840   31.3020  107.4010 C.2   527  GLY527      0.2309
     87  O         49.1280   31.2940  108.4570 O.2   527  GLY527     -0.2863
     88  N         51.1970   31.5230  104.9770 N.3   529  PHE529     -0.1241
     89  CA        52.2170   31.9920  104.0420 C.3   529  PHE529      0.1605
     90  C         53.6070   32.0820  104.6780 C.2   529  PHE529      0.2264
     91  O         53.7960   32.7760  105.6800 O.2   529  PHE529     -0.2867
     92  CB        51.8360   33.3590  103.4650 C.3   529  PHE529      0.0534
     93  CG        50.6470   33.3190  102.5450 C.ar  529  PHE529     -0.0203
     94  CD1       49.3600   33.5190  103.0370 C.ar  529  PHE529     -0.0042
     95  CD2       50.8170   33.0670  101.1820 C.ar  529  PHE529     -0.0042
     96  CE1       48.2590   33.4730  102.1840 C.ar  529  PHE529     -0.0003
     97  CE2       49.7240   33.0180  100.3190 C.ar  529  PHE529     -0.0003
     98  CZ        48.4430   33.2220  100.8210 C.ar  529  PHE529     -0.0000
     99  N         53.9920   35.2620  109.7850 N.3   548  MET548     -0.1245
    100  CA        52.6240   34.7690  109.8640 C.3   548  MET548      0.1570
    101  C         52.6070   33.3360  110.4030 C.2   548  MET548      0.2261
    102  O         51.6170   32.9010  110.9940 O.2   548  MET548     -0.2867
    103  CB        51.9900   34.8040  108.4680 C.3   548  MET548      0.0387
    104  CG        50.5090   34.4820  108.4330 C.3   548  MET548      0.0595
    105  SD        49.8690   34.4180  106.7400 S.3   548  MET548     -0.1393
    106  CE        49.9670   36.1070  106.3060 C.3   548  MET548      0.0692
@<TRIPOS>BOND
     1    49    48    2
     2    53    54    1
     3    48    47    1
     4    60    58   ar
     5    54    57    1
     6    54    55    1
     7    47    46    1
     8    47    50    1
     9    58    57    1
    10    58    59   ar
    11    52    50    1
    12    50    51    1
    13    61    55   am
    14    61    62    1
    15    55    56    2
    16    97    98   ar
    17    97    95   ar
    18    63    62    1
    19    63    64    2
    20    34    35    1
    21    36    35    1
    22    36    37    2
    23    35    38    1
    24    65    62    1
    25    65    66    1
    26    98    96   ar
    27    66    67    1
    28    95    93   ar
    29    72    73    1
    30    38    39    1
    31    96    94   ar
    32    70    69    1
    33    39    40   ar
    34    39    41   ar
    35    93    94   ar
    36    93    92    1
    37    40    42   ar
    38    67    68    1
    39    69    71    1
    40    69    68    2
    41    41    43   ar
    42    42    44   ar
    43    43    44   ar
    44    44    45    1
    45    73    74    1
    46    73    76    1
    47    92    89    1
    48    74    75    2
    49    76    77    1
    50    89    90    1
    51    89    88    1
    52    90    91    2
    53    80    81    1
    54    77    79    1
    55    77    78    1
    56    13    14   ar
    57    13    11   ar
    58    14    12   ar
    59   106   105    1
    60    11     8   ar
    61    12    10   ar
    62    81    82    1
    63    84    82   am
    64    84    85    1
    65     8    10   ar
    66     8     6   ar
    67   105   104    1
    68    10     9   ar
    69     6     5    1
    70     6     7   ar
    71     9     7   ar
    72    82    83    2
    73    85    86    1
    74     5     2    1
    75    86    87    2
    76     2     1    1
    77     2     3    1
    78   104   103    1
    79   103   100    1
    80     3     4    2
    81    99   100    1
    82   100   101    1
    83    26    23    1
    84    20    19    1
    85   101   102    2
    86    19    21    1
    87    19    16    1
    88    23    22    1
    89    23    24    1
    90    22    17   am
    91    17    16    1
    92    17    18    2
    93    16    15    1
    94    24    25    2
    95    33    31    1
    96    31    32    1
    97    31    28    1
    98    27    28    1
    99    28    29    1
   100    29    30    2
