@<TRIPOS>MOLECULE
tmp/1xmeA00.pdb
 100 100 0 0 0
SMALL
GASTEIGER

@<TRIPOS>ATOM
      1  N         67.7530   58.0210   32.6180 N.3     2  GLU2       -0.1245
      2  CA        67.7280   57.9120   31.1620 C.3     2  GLU2        0.1567
      3  C         67.3270   59.2730   30.5970 C.2     2  GLU2        0.2260
      4  O         66.1910   59.7130   30.7810 O.2     2  GLU2       -0.2867
      5  CB        66.7140   56.8400   30.7310 C.3     2  GLU2        0.0388
      6  CG        66.7760   56.4460   29.2510 C.3     2  GLU2        0.1160
      7  CD        68.0880   55.7620   28.8690 C.2     2  GLU2        0.3649
      8  OE1       68.3840   54.6780   29.4200 O.co2   2  GLU2       -0.2457
      9  OE2       68.8230   56.3080   28.0170 O.co2   2  GLU2       -0.2457
     10  N         67.8740   50.8090   22.6890 N.3    14  LYS14      -0.1245
     11  CA        69.2170   51.0380   23.1920 C.3    14  LYS14       0.1561
     12  C         70.0640   49.7700   23.1480 C.2    14  LYS14       0.2260
     13  O         71.2260   49.8060   22.7410 O.2    14  LYS14      -0.2867
     14  CB        69.1600   51.5910   24.6190 C.3    14  LYS14       0.0271
     15  CG        70.4880   52.1150   25.1250 C.3    14  LYS14       0.0035
     16  CD        70.3450   52.7750   26.4870 C.3    14  LYS14       0.0206
     17  CE        71.6420   53.4570   26.9070 C.3    14  LYS14       0.1093
     18  NZ        71.5700   53.9880   28.2930 N.3    14  LYS14      -0.1314
     19  N         73.6900   49.0450   20.9430 N.3    18  TYR18      -0.1241
     20  CA        74.9310   48.5200   21.5130 C.3    18  TYR18       0.1605
     21  C         75.3990   47.2660   20.7800 C.2    18  TYR18       0.2264
     22  O         76.5960   47.0130   20.6750 O.2    18  TYR18      -0.2867
     23  CB        74.7560   48.2130   23.0010 C.3    18  TYR18       0.0534
     24  CG        74.9850   49.4200   23.8740 C.ar   18  TYR18      -0.0201
     25  CD1       75.8600   49.3650   24.9600 C.ar   18  TYR18      -0.0009
     26  CD2       74.3550   50.6310   23.5940 C.ar   18  TYR18      -0.0009
     27  CE1       76.1050   50.4860   25.7380 C.ar   18  TYR18       0.0417
     28  CE2       74.5930   51.7540   24.3630 C.ar   18  TYR18       0.0417
     29  CZ        75.4690   51.6810   25.4320 C.ar   18  TYR18       0.1957
     30  OH        75.7140   52.8130   26.1770 O.3    18  TYR18      -0.2866
     31  N         65.8480   42.4760   30.9580 N.3    99  GLY99      -0.1225
     32  CA        66.8880   41.9880   31.8390 C.3    99  GLY99       0.1811
     33  C         67.6940   40.9660   31.0570 C.2    99  GLY99       0.2280
     34  O         68.9200   40.8980   31.1670 O.2    99  GLY99      -0.2866
     35  N         69.8440   42.7790   27.8790 N.3   102  TRP102     -0.1227
     36  CA        71.1200   43.3510   28.2920 C.3   102  TRP102      0.1737
     37  C         72.0840   42.2790   28.7790 C.2   102  TRP102      0.2595
     38  O         73.2960   42.4310   28.6560 O.2   102  TRP102     -0.2718
     39  CB        70.9160   44.4150   29.3710 C.3   102  TRP102      0.0564
     40  CG        70.5380   45.7250   28.7730 C.ar  102  TRP102      0.0003
     41  CD1       69.3470   46.3710   28.9040 C.ar  102  TRP102      0.0946
     42  CD2       71.3350   46.5190   27.8800 C.ar  102  TRP102      0.0152
     43  NE1       69.3470   47.5160   28.1450 N.ar  102  TRP102     -0.2442
     44  CE2       70.5540   47.6340   27.5060 C.ar  102  TRP102      0.0810
     45  CE3       72.6290   46.3930   27.3590 C.ar  102  TRP102      0.0012
     46  CZ2       71.0250   48.6280   26.6320 C.ar  102  TRP102      0.0191
     47  CZ3       73.1030   47.3870   26.4820 C.ar  102  TRP102      0.0001
     48  CH2       72.2940   48.4890   26.1310 C.ar  102  TRP102      0.0015
     49  N         71.5520   41.1930   29.3300 N.am  103  LEU103     -0.1980
     50  CA        72.4030   40.1120   29.7840 C.3   103  LEU103      0.1596
     51  C         73.1060   39.4970   28.5670 C.2   103  LEU103      0.2287
     52  O         74.2850   39.1410   28.6430 O.2   103  LEU103     -0.2864
     53  CB        71.5830   39.0400   30.5050 C.3   103  LEU103      0.0297
     54  CG        72.3360   37.7400   30.8200 C.3   103  LEU103      0.0022
     55  CD1       73.4470   38.0210   31.8290 C.3   103  LEU103      0.0001
     56  CD2       71.3720   36.6950   31.3590 C.3   103  LEU103      0.0001
     57  N         73.8760   41.0200   25.8270 N.3   105  TRP105     -0.1227
     58  CA        74.8690   41.9380   25.3020 C.3   105  TRP105      0.1737
     59  C         76.1460   41.8260   26.1450 C.2   105  TRP105      0.2595
     60  O         77.2510   41.7950   25.6000 O.2   105  TRP105     -0.2718
     61  CB        74.3730   43.3840   25.3190 C.3   105  TRP105      0.0564
     62  CG        75.3700   44.3070   24.6750 C.ar  105  TRP105      0.0003
     63  CD1       75.5300   44.5390   23.3360 C.ar  105  TRP105      0.0946
     64  CD2       76.4230   45.0270   25.3310 C.ar  105  TRP105      0.0152
     65  NE1       76.6160   45.3500   23.1170 N.ar  105  TRP105     -0.2442
     66  CE2       77.1840   45.6650   24.3240 C.ar  105  TRP105      0.0810
     67  CE3       76.8020   45.1910   26.6720 C.ar  105  TRP105      0.0012
     68  CZ2       78.3060   46.4560   24.6180 C.ar  105  TRP105      0.0191
     69  CZ3       77.9170   45.9740   26.9610 C.ar  105  TRP105      0.0001
     70  CH2       78.6550   46.5960   25.9370 C.ar  105  TRP105      0.0015
     71  N         76.0040   41.7590   27.4670 N.am  106  TRP106     -0.1962
     72  CA        77.1790   41.6450   28.3300 C.3   106  TRP106      0.1771
     73  C         77.9380   40.3430   28.1270 C.2   106  TRP106      0.2619
     74  O         79.1570   40.3100   28.2740 O.2   106  TRP106     -0.2715
     75  CB        76.8040   41.7960   29.8030 C.3   106  TRP106      0.0590
     76  CG        76.6540   43.2100   30.1890 C.ar  106  TRP106      0.0006
     77  CD1       75.4950   43.9010   30.3060 C.ar  106  TRP106      0.0946
     78  CD2       77.7110   44.1440   30.4380 C.ar  106  TRP106      0.0152
     79  NE1       75.7530   45.2120   30.6100 N.ar  106  TRP106     -0.2442
     80  CE2       77.1080   45.3920   30.6960 C.ar  106  TRP106      0.0810
     81  CE3       79.1100   44.0490   30.4600 C.ar  106  TRP106      0.0012
     82  CZ2       77.8530   46.5470   30.9780 C.ar  106  TRP106      0.0191
     83  CZ3       79.8550   45.1990   30.7390 C.ar  106  TRP106      0.0001
     84  CH2       79.2190   46.4310   30.9940 C.ar  106  TRP106      0.0015
     85  N         77.2260   39.2700   27.7950 N.am  107  MET107     -0.1977
     86  CA        77.8810   37.9890   27.5480 C.3   107  MET107      0.1605
     87  C         78.7240   38.0960   26.2820 C.2   107  MET107      0.2287
     88  O         79.8580   37.6210   26.2320 O.2   107  MET107     -0.2864
     89  CB        76.8480   36.8720   27.3880 C.3   107  MET107      0.0413
     90  CG        76.2560   36.4080   28.7050 C.3   107  MET107      0.0598
     91  SD        74.9860   35.1590   28.5060 S.3   107  MET107     -0.1393
     92  CE        75.9880   33.6810   28.2290 C.3   107  MET107      0.0692
     93  N         81.7290   40.5660   27.1560 N.3   110  ILE110     -0.1245
     94  CA        82.7140   39.9530   28.0320 C.3   110  ILE110      0.1561
     95  C         83.4020   38.7980   27.3290 C.2   110  ILE110      0.2260
     96  O         84.6070   38.5950   27.4880 O.2   110  ILE110     -0.2867
     97  CB        82.0420   39.4780   29.3490 C.3   110  ILE110      0.0252
     98  CG1       81.7590   40.7040   30.2270 C.3   110  ILE110      0.0019
     99  CG2       82.9150   38.4680   30.0800 C.3   110  ILE110      0.0019
    100  CD1       80.7460   40.4500   31.3300 C.3   110  ILE110      0.0001
@<TRIPOS>BOND
     1    22    21    2
     2    21    20    1
     3    19    20    1
     4    20    23    1
     5    10    11    1
     6    13    12    2
     7    23    24    1
     8    65    63   ar
     9    65    66   ar
    10    12    11    1
    11    11    14    1
    12    63    62   ar
    13    26    24   ar
    14    26    28   ar
    15    24    25   ar
    16    66    68   ar
    17    66    64   ar
    18    28    29   ar
    19    68    70   ar
    20    14    15    1
    21    62    61    1
    22    62    64   ar
    23    25    27   ar
    24    15    16    1
    25    58    61    1
    26    58    57    1
    27    58    59    1
    28    64    67   ar
    29    29    27   ar
    30    29    30    1
    31    60    59    2
    32    70    69   ar
    33    48    47   ar
    34    48    46   ar
    35    59    71   am
    36    88    87    2
    37    87    86    1
    38    47    45   ar
    39    16    17    1
    40    46    44   ar
    41    67    69   ar
    42    17    18    1
    43    93    94    1
    44    95    96    2
    45    95    94    1
    46    45    42   ar
    47    89    86    1
    48    89    90    1
    49    71    72    1
    50    44    42   ar
    51    44    43   ar
    52    86    85    1
    53    85    73   am
    54    35    36    1
    55    42    40   ar
    56     9     7   ar
    57    94    97    1
    58    73    74    2
    59    73    72    1
    60    43    41   ar
    61    92    91    1
    62    36    37    1
    63    36    39    1
    64    72    75    1
    65    91    90    1
    66    51    52    2
    67    51    50    1
    68    38    37    2
    69    40    41   ar
    70    40    39    1
    71    37    49   am
    72     7     6    1
    73     7     8   ar
    74     6     5    1
    75    49    50    1
    76    97    99    1
    77    97    98    1
    78    50    53    1
    79    75    76    1
    80    76    77   ar
    81    76    78   ar
    82    98   100    1
    83    77    79   ar
    84    78    81   ar
    85    78    80   ar
    86    81    83   ar
    87    53    54    1
    88     3     4    2
    89     3     2    1
    90    79    80   ar
    91    80    82   ar
    92     5     2    1
    93    83    84   ar
    94    54    56    1
    95    54    55    1
    96    31    32    1
    97    82    84   ar
    98    33    34    2
    99    33    32    1
   100     2     1    1
