@<TRIPOS>MOLECULE
tmp/1xmmB00.pdb
 169 166 0 0 0
SMALL
GASTEIGER

@<TRIPOS>ATOM
      1  N         49.1200   41.0220   13.1220 N.3    93  LYS93      -0.1245
      2  CA        48.1550   40.2600   13.9010 C.3    93  LYS93       0.1561
      3  C         48.2740   38.7540   13.6580 C.2    93  LYS93       0.2260
      4  O         48.2370   37.9660   14.6090 O.2    93  LYS93      -0.2867
      5  CB        46.7460   40.7350   13.5440 C.3    93  LYS93       0.0271
      6  CG        45.6490   40.1120   14.3520 C.3    93  LYS93       0.0035
      7  CD        44.2760   40.4620   13.7880 C.3    93  LYS93       0.0206
      8  CE        43.1970   40.1310   14.7970 C.3    93  LYS93       0.1093
      9  NZ        43.0020   38.6640   14.9130 N.3    93  LYS93      -0.1314
     10  N         33.0270   46.5490   10.2730 N.3   126  TRP126     -0.1241
     11  CA        32.2550   45.3250   10.1390 C.3   126  TRP126      0.1605
     12  C         31.2270   45.2110   11.2530 C.2   126  TRP126      0.2264
     13  O         30.1450   44.6670   11.0480 O.2   126  TRP126     -0.2867
     14  CB        33.1780   44.1020   10.1270 C.3   126  TRP126      0.0550
     15  CG        33.9010   43.8100   11.4230 C.ar  126  TRP126      0.0003
     16  CD1       35.1050   44.3080   11.8150 C.ar  126  TRP126      0.0946
     17  CD2       33.4750   42.9280   12.4670 C.ar  126  TRP126      0.0152
     18  NE1       35.4530   43.7990   13.0430 N.ar  126  TRP126     -0.2442
     19  CE2       34.4670   42.9460   13.4630 C.ar  126  TRP126      0.0810
     20  CE3       32.3450   42.1300   12.6670 C.ar  126  TRP126      0.0012
     21  CZ2       34.3650   42.2030   14.6340 C.ar  126  TRP126      0.0191
     22  CZ3       32.2530   41.3770   13.8230 C.ar  126  TRP126      0.0001
     23  CH2       33.2540   41.4200   14.7920 C.ar  126  TRP126      0.0015
     24  N         25.3640   40.9180    6.8660 N.3   136  GLU136     -0.1245
     25  CA        25.0970   39.7620    7.7160 C.3   136  GLU136      0.1567
     26  C         23.7340   39.7660    8.3650 C.2   136  GLU136      0.2260
     27  O         23.5090   39.0280    9.3190 O.2   136  GLU136     -0.2867
     28  CB        26.1550   39.6320    8.8030 C.3   136  GLU136      0.0388
     29  CG        27.5590   39.5390    8.2680 C.3   136  GLU136      0.1160
     30  CD        28.5190   39.0330    9.3100 C.2   136  GLU136      0.3649
     31  OE1       28.3290   37.9090    9.8100 O.co2 136  GLU136     -0.2457
     32  OE2       29.4590   39.7760    9.6250 O.co2 136  GLU136     -0.2457
     33  N         21.8500   36.4590    8.7050 N.3   139  ARG139     -0.1245
     34  CA        22.4190   35.4870    9.6380 C.3   139  ARG139      0.1563
     35  C         22.1760   35.8350   11.1130 C.2   139  ARG139      0.2260
     36  O         22.6020   35.0940   12.0020 O.2   139  ARG139     -0.2867
     37  CB        23.9250   35.3630    9.4260 C.3   139  ARG139      0.0307
     38  CG        24.3440   35.0300    8.0110 C.3   139  ARG139      0.0489
     39  CD        25.6010   35.7760    7.5520 C.3   139  ARG139      0.2205
     40  NE        26.6130   35.8790    8.5990 N.pl3 139  ARG139     -0.0865
     41  CZ        27.4020   34.8830    9.0070 C.cat 139  ARG139      0.5346
     42  NH1       27.3170   33.6710    8.4700 N.pl3 139  ARG139      0.1354
     43  NH2       28.2930   35.1070    9.9670 N.pl3 139  ARG139      0.1354
     44  N         25.1780   36.7710   16.4830 N.3   154  ILE154     -0.1231
     45  CA        25.4270   36.3790   15.1070 C.3   154  ILE154      0.1678
     46  C         26.5310   35.3130   15.0520 C.2   154  ILE154      0.2434
     47  O         27.3920   35.2760   15.9290 O.2   154  ILE154     -0.2733
     48  CB        25.8000   37.6640   14.3270 C.3   154  ILE154      0.0265
     49  CG1       25.3120   37.5980   12.8940 C.3   154  ILE154      0.0019
     50  CG2       27.2970   37.9630   14.4000 C.3   154  ILE154      0.0020
     51  CD1       25.0320   38.9340   12.3480 C.3   154  ILE154      0.0001
     52  N         26.4890   34.4090   14.0770 N.am  155  PRO155     -0.2718
     53  CA        27.5780   33.4430   13.9080 C.3   155  PRO155      0.1535
     54  C         28.9190   34.1400   13.7380 C.2   155  PRO155      0.2599
     55  O         29.0420   35.0880   12.9480 O.2   155  PRO155     -0.2715
     56  CB        27.2040   32.7110   12.6280 C.3   155  PRO155      0.0310
     57  CG        25.7480   32.8640   12.5180 C.3   155  PRO155      0.0237
     58  CD        25.4150   34.1910   13.0950 C.3   155  PRO155      0.0939
     59  N         29.9090   33.6790   14.4900 N.am  156  ASP156     -0.1958
     60  CA        31.2540   34.1920   14.3740 C.3   156  ASP156      0.1840
     61  C         31.8540   33.8330   13.0300 C.2   156  ASP156      0.2622
     62  O         31.4840   32.8380   12.4240 O.2   156  ASP156     -0.2715
     63  CB        32.1390   33.6410   15.4940 C.3   156  ASP156      0.1450
     64  CG        33.4070   34.4300   15.6510 C.2   156  ASP156      0.3671
     65  OD1       34.4180   34.0260   15.0370 O.co2 156  ASP156     -0.2456
     66  OD2       33.4680   35.4860   16.3300 O.co2 156  ASP156     -0.2456
     67  N         32.7850   34.6560   12.5750 N.am  157  LEU157     -0.1963
     68  CA        33.4190   34.4790   11.2720 C.3   157  LEU157      0.1728
     69  C         34.1260   33.1190   11.1780 C.2   157  LEU157      0.2616
     70  O         34.1740   32.4950   10.1100 O.2   157  LEU157     -0.2715
     71  CB        34.4070   35.6370   11.0260 C.3   157  LEU157      0.0311
     72  CG        35.4020   35.5820    9.8570 C.3   157  LEU157      0.0022
     73  CD1       35.6870   36.9970    9.3460 C.3   157  LEU157      0.0001
     74  CD2       36.7110   34.8960   10.2640 C.3   157  LEU157      0.0001
     75  N         34.6730   32.6830   12.3090 N.am  158  LYS158     -0.1977
     76  CA        35.4460   31.4510   12.4090 C.3   158  LYS158      0.1596
     77  C         34.6200   30.1950   12.1820 C.2   158  LYS158      0.2287
     78  O         35.1650   29.1680   11.7840 O.2   158  LYS158     -0.2864
     79  CB        36.1000   31.3620   13.7880 C.3   158  LYS158      0.0298
     80  CG        37.2230   32.3530   14.0040 C.3   158  LYS158      0.0038
     81  CD        37.4900   32.5580   15.4820 C.3   158  LYS158      0.0206
     82  CE        38.5250   33.6670   15.7470 C.3   158  LYS158      0.1093
     83  NZ        38.4030   34.1270   17.1660 N.3   158  LYS158     -0.1314
     84  N         30.1180   28.6230   17.4390 N.3   168  TYR168     -0.1241
     85  CA        30.8260   29.8590   17.7610 C.3   168  TYR168      0.1605
     86  C         29.9980   31.0620   17.3170 C.2   168  TYR168      0.2264
     87  O         29.8620   31.3140   16.1320 O.2   168  TYR168     -0.2867
     88  CB        32.2160   29.8680   17.1020 C.3   168  TYR168      0.0534
     89  CG        33.2610   30.7650   17.7620 C.ar  168  TYR168     -0.0201
     90  CD1       34.6080   30.4320   17.7210 C.ar  168  TYR168     -0.0009
     91  CD2       32.9040   31.9510   18.4080 C.ar  168  TYR168     -0.0009
     92  CE1       35.5690   31.2510   18.3150 C.ar  168  TYR168      0.0417
     93  CE2       33.8510   32.7660   18.9880 C.ar  168  TYR168      0.0417
     94  CZ        35.1760   32.4200   18.9430 C.ar  168  TYR168      0.1957
     95  OH        36.1040   33.2450   19.5450 O.3   168  TYR168     -0.2866
     96  N         29.0890   35.4140   18.2990 N.3   170  ILE170     -0.1245
     97  CA        29.3850   36.5920   19.1150 C.3   170  ILE170      0.1561
     98  C         28.1560   37.4580   19.3390 C.2   170  ILE170      0.2260
     99  O         27.3040   37.5860   18.4670 O.2   170  ILE170     -0.2867
    100  CB        30.5150   37.4790   18.5060 C.3   170  ILE170      0.0252
    101  CG1       30.4260   37.5120   16.9840 C.3   170  ILE170      0.0019
    102  CG2       31.8940   37.0340   19.0030 C.3   170  ILE170      0.0019
    103  CD1       31.2080   38.6470   16.3890 C.3   170  ILE170      0.0001
    104  N         37.2830   38.5100   25.4140 N.3   219  HIS219     -0.1241
    105  CA        38.7240   38.5600   25.2500 C.3   219  HIS219      0.1621
    106  C         39.1930   39.8410   25.9080 C.2   219  HIS219      0.2264
    107  O         38.6130   40.9080   25.6570 O.2   219  HIS219     -0.2867
    108  CB        39.1000   38.6340   23.7630 C.3   219  HIS219      0.0745
    109  CG        39.0080   37.3280   23.0330 C.ar  219  HIS219      0.0817
    110  ND1       39.0610   37.2450   21.6570 N.ar  219  HIS219     -0.2268
    111  CD2       38.8750   36.0570   23.4840 C.ar  219  HIS219      0.1154
    112  CE1       38.9540   35.9790   21.2940 C.ar  219  HIS219      0.1986
    113  NE2       38.8370   35.2380   22.3820 N.ar  219  HIS219     -0.2212
    114  N         41.0360   42.4740   23.2950 N.3   222  PRO222     -0.2102
    115  CA        40.2900   42.0740   22.1030 C.3   222  PRO222      0.1504
    116  C         40.9920   42.6550   20.8690 C.2   222  PRO222      0.2576
    117  O         41.7300   43.6390   20.9840 O.2   222  PRO222     -0.2718
    118  CB        38.9160   42.7120   22.3300 C.3   222  PRO222      0.0282
    119  CG        39.2090   43.9310   23.1760 C.3   222  PRO222      0.0208
    120  CD        40.3680   43.5680   24.0280 C.3   222  PRO222      0.0893
    121  N         40.8020   42.0330   19.7140 N.am  223  SER223     -0.1938
    122  CA        41.3520   42.5510   18.4640 C.3   223  SER223      0.2055
    123  C         40.5390   43.7190   17.9250 C.2   223  SER223      0.2643
    124  O         41.0230   44.4990   17.0990 O.2   223  SER223     -0.2714
    125  CB        41.4250   41.4400   17.4220 C.3   223  SER223      0.2130
    126  OG        42.1880   40.3480   17.9120 O.3   223  SER223     -0.2179
    127  N         39.3050   43.8440   18.3940 N.am  224  TYR224     -0.1973
    128  CA        38.3930   44.8870   17.9230 C.3   224  TYR224      0.1639
    129  C         37.7670   45.5530   19.1300 C.2   224  TYR224      0.2290
    130  O         37.2190   44.8800   19.9860 O.2   224  TYR224     -0.2864
    131  CB        37.3290   44.2690   17.0180 C.3   224  TYR224      0.0560
    132  CG        37.9180   43.5540   15.8170 C.ar  224  TYR224     -0.0198
    133  CD1       38.0430   42.1770   15.8000 C.ar  224  TYR224     -0.0009
    134  CD2       38.3690   44.2660   14.7050 C.ar  224  TYR224     -0.0009
    135  CE1       38.5800   41.5150   14.6960 C.ar  224  TYR224      0.0417
    136  CE2       38.8990   43.6200   13.6070 C.ar  224  TYR224      0.0417
    137  CZ        39.0090   42.2430   13.6110 C.ar  224  TYR224      0.1957
    138  OH        39.5440   41.5900   12.5300 O.3   224  TYR224     -0.2866
    139  N         32.1120   42.9100   22.6670 N.3   228  HIS228     -0.1241
    140  CA        31.3900   41.7670   22.1260 C.3   228  HIS228      0.1621
    141  C         31.7470   40.4970   22.9010 C.2   228  HIS228      0.2264
    142  O         32.8580   40.3430   23.4110 O.2   228  HIS228     -0.2867
    143  CB        31.6280   41.6330   20.6100 C.3   228  HIS228      0.0745
    144  CG        33.0710   41.6490   20.2300 C.ar  228  HIS228      0.0817
    145  ND1       33.9760   42.5160   20.7960 N.ar  228  HIS228     -0.2268
    146  CD2       33.7790   40.8770   19.3760 C.ar  228  HIS228      0.1154
    147  CE1       35.1780   42.2840   20.3040 C.ar  228  HIS228      0.1986
    148  NE2       35.0850   41.2950   19.4390 N.ar  228  HIS228     -0.2212
    149  N         31.8690   36.2690   23.2810 N.3   230  HIS230     -0.1241
    150  CA        32.0400   35.0170   22.5640 C.3   230  HIS230      0.1621
    151  C         31.2070   33.8900   23.1690 C.2   230  HIS230      0.2264
    152  O         31.1500   33.7620   24.3860 O.2   230  HIS230     -0.2867
    153  CB        33.5060   34.6210   22.6010 C.3   230  HIS230      0.0745
    154  CG        34.4220   35.6460   22.0220 C.ar  230  HIS230      0.0817
    155  ND1       34.9990   35.5030   20.7810 N.ar  230  HIS230     -0.2268
    156  CD2       34.8700   36.8260   22.5140 C.ar  230  HIS230      0.1154
    157  CE1       35.7690   36.5480   20.5350 C.ar  230  HIS230      0.1986
    158  NE2       35.7070   37.3670   21.5690 N.ar  230  HIS230     -0.2212
    159  N         43.5650   35.0530   28.2580 N.3   245  ARG245     -0.1245
    160  CA        42.8090   35.8240   27.2700 C.3   245  ARG245      0.1563
    161  C         41.3260   35.9890   27.6380 C.2   245  ARG245      0.2260
    162  O         40.7880   37.0720   27.5040 O.2   245  ARG245     -0.2867
    163  CB        42.9270   35.1480   25.9020 C.3   245  ARG245      0.0307
    164  CG        42.4210   35.9820   24.7460 C.3   245  ARG245      0.0489
    165  CD        43.3570   37.1120   24.3520 C.3   245  ARG245      0.2205
    166  NE        42.8050   37.9860   23.3160 N.pl3 245  ARG245     -0.0865
    167  CZ        42.7000   37.6680   22.0310 C.cat 245  ARG245      0.5346
    168  NH1       43.0750   36.4740   21.5920 N.pl3 245  ARG245      0.1354
    169  NH2       42.1980   38.5500   21.1670 N.pl3 245  ARG245      0.1354
@<TRIPOS>BOND
     1    24    25    1
     2    39    38    1
     3    39    40    1
     4    25    26    1
     5    25    28    1
     6    38    37    1
     7    29    28    1
     8    29    30    1
     9    26    27    2
    10    42    41    1
    11    40    41    2
    12    33    34    1
    13    41    43    1
    14    30    32   ar
    15    30    31   ar
    16    73    72    1
    17    37    34    1
    18    34    35    1
    19    72    74    1
    20    72    71    1
    21    70    69    2
    22    14    11    1
    23    14    15    1
    24    11    10    1
    25    11    12    1
    26    71    68    1
    27    13    12    2
    28    35    36    2
    29    69    68    1
    30    69    75   am
    31    68    67    1
    32    15    16   ar
    33    15    17   ar
    34    78    77    2
    35    16    18   ar
    36    77    76    1
    37    75    76    1
    38    51    49    1
    39    76    79    1
    40    62    61    2
    41    17    20   ar
    42    17    19   ar
    43    57    56    1
    44    57    58    1
    45   138   137    1
    46    67    61   am
    47    56    53    1
    48    20    22   ar
    49    49    48    1
    50    55    54    2
    51    61    60    1
    52    18    19   ar
    53    58    52    1
    54     1     2    1
    55    19    21   ar
    56     5     2    1
    57     5     6    1
    58   136   137   ar
    59   136   134   ar
    60   137   135   ar
    61     3     2    1
    62     3     4    2
    63    54    53    1
    64    54    59   am
    65     7     6    1
    66     7     8    1
    67    79    80    1
    68    22    23   ar
    69    53    52    1
    70    80    81    1
    71    52    46   am
    72    48    50    1
    73    48    45    1
    74    60    59    1
    75    60    63    1
    76    21    23   ar
    77   135   133   ar
    78   134   132   ar
    79     8     9    1
    80    65    64   ar
    81    46    45    1
    82    46    47    2
    83    45    44    1
    84    81    82    1
    85    63    64    1
    86    64    66   ar
    87    82    83    1
    88   133   132   ar
    89   132   131    1
    90    87    86    2
    91   103   101    1
    92   101   100    1
    93   131   128    1
    94   124   123    2
    95    88    85    1
    96    88    89    1
    97    86    85    1
    98   125   126    1
    99   125   122    1
   100    84    85    1
   101    90    89   ar
   102    90    92   ar
   103    89    91   ar
   104   128   127    1
   105   128   129    1
   106   123   127   am
   107   123   122    1
   108    96    97    1
   109    92    94   ar
   110    91    93   ar
   111   122   121    1
   112    99    98    2
   113   100   102    1
   114   100    97    1
   115    94    93   ar
   116    94    95    1
   117    97    98    1
   118   129   130    2
   119   146   148   ar
   120   146   144   ar
   121   148   147   ar
   122   121   116   am
   123   144   143    1
   124   144   145   ar
   125   147   145   ar
   126   157   155   ar
   127   157   158   ar
   128   143   140    1
   129   155   154   ar
   130   116   117    2
   131   116   115    1
   132   169   167    1
   133   112   110   ar
   134   112   113   ar
   135   158   156   ar
   136   168   167    1
   137   110   109   ar
   138   154   156   ar
   139   154   153    1
   140   167   166    2
   141   115   118    1
   142   115   114    1
   143   140   139    1
   144   140   141    1
   145   118   119    1
   146   113   111   ar
   147   150   153    1
   148   150   151    1
   149   150   149    1
   150   141   142    2
   151   109   111   ar
   152   109   108    1
   153   151   152    2
   154   119   120    1
   155   114   120    1
   156   166   165    1
   157   108   105    1
   158   165   164    1
   159   164   163    1
   160   105   104    1
   161   105   106    1
   162   107   106    2
   163   163   160    1
   164   160   161    1
   165   160   159    1
   166   162   161    2
