@<TRIPOS>MOLECULE
tmp/1xmmC00.pdb
 140 137 0 0 0
SMALL
GASTEIGER

@<TRIPOS>ATOM
      1  N        100.8750   47.5780   21.9170 N.3   128  TRP128     -0.1241
      2  CA       101.9520   47.2860   22.8660 C.3   128  TRP128      0.1605
      3  C        102.4920   45.8590   22.7330 C.2   128  TRP128      0.2264
      4  O        103.6510   45.6020   23.0500 O.2   128  TRP128     -0.2867
      5  CB       101.4900   47.5280   24.3060 C.3   128  TRP128      0.0550
      6  CG       100.4420   46.5530   24.7950 C.ar  128  TRP128      0.0003
      7  CD1       99.0870   46.7310   24.7810 C.ar  128  TRP128      0.0946
      8  CD2      100.6660   45.2600   25.3800 C.ar  128  TRP128      0.0152
      9  NE1       98.4560   45.6320   25.3170 N.ar  128  TRP128     -0.2442
     10  CE2       99.3980   44.7120   25.6900 C.ar  128  TRP128      0.0810
     11  CE3      101.8120   44.5010   25.6670 C.ar  128  TRP128      0.0012
     12  CZ2       99.2420   43.4550   26.2760 C.ar  128  TRP128      0.0191
     13  CZ3      101.6600   43.2460   26.2490 C.ar  128  TRP128      0.0001
     14  CH2      100.3820   42.7350   26.5450 C.ar  128  TRP128      0.0015
     15  N        106.4890   44.6820   21.5470 N.3   132  ILE132     -0.1245
     16  CA       107.3710   43.6440   22.1180 C.3   132  ILE132      0.1561
     17  C        107.8610   42.7000   21.0170 C.2   132  ILE132      0.2260
     18  O        109.0160   42.2640   21.0320 O.2   132  ILE132     -0.2867
     19  CB       106.6570   42.8260   23.2250 C.3   132  ILE132      0.0252
     20  CG1      106.3390   43.7080   24.4350 C.3   132  ILE132      0.0019
     21  CG2      107.5000   41.6270   23.6540 C.3   132  ILE132      0.0019
     22  CD1      105.3080   43.1040   25.4020 C.3   132  ILE132      0.0001
     23  N        110.6330   46.8250   25.3960 N.3   138  GLU138     -0.1245
     24  CA       110.8690   45.7350   26.3470 C.3   138  GLU138      0.1567
     25  C        111.8960   44.7050   25.9110 C.2   138  GLU138      0.2260
     26  O        111.9420   43.6100   26.4690 O.2   138  GLU138     -0.2867
     27  CB       109.5650   45.0090   26.6720 C.3   138  GLU138      0.0388
     28  CG       108.4290   45.9110   27.1150 C.3   138  GLU138      0.1160
     29  CD       107.4990   45.2180   28.0890 C.2   138  GLU138      0.3649
     30  OE1      106.6470   45.9090   28.6760 O.co2 138  GLU138     -0.2457
     31  OE2      107.6250   43.9870   28.2810 O.co2 138  GLU138     -0.2457
     32  N        114.0560   42.9090   28.3200 N.3   141  ARG141     -0.1245
     33  CA       113.3310   41.9510   29.1350 C.3   141  ARG141      0.1563
     34  C        113.1800   40.5870   28.4770 C.2   141  ARG141      0.2260
     35  O        112.7630   39.6460   29.1340 O.2   141  ARG141     -0.2867
     36  CB       111.9520   42.5410   29.4900 C.3   141  ARG141      0.0307
     37  CG       112.0450   43.9830   30.0520 C.3   141  ARG141      0.0489
     38  CD       110.7230   44.5840   30.5090 C.3   141  ARG141      0.2205
     39  NE       110.3050   44.0170   31.7890 N.pl3 141  ARG141     -0.0865
     40  CZ       109.2650   43.2030   31.9710 C.cat 141  ARG141      0.5346
     41  NH1      108.4720   42.8410   30.9600 N.pl3 141  ARG141      0.1354
     42  NH2      109.0130   42.7500   33.1920 N.pl3 141  ARG141      0.1354
     43  N        108.7550   36.7630   28.0250 N.3   156  ILE156     -0.1231
     44  CA       109.1460   37.9390   28.8010 C.3   156  ILE156      0.1678
     45  C        108.5810   37.8500   30.2110 C.2   156  ILE156      0.2434
     46  O        107.5270   37.2640   30.4090 O.2   156  ILE156     -0.2733
     47  CB       108.5970   39.2260   28.1610 C.3   156  ILE156      0.0265
     48  CG1      107.1320   39.0440   27.7400 C.3   156  ILE156      0.0019
     49  CG2      109.4500   39.6370   26.9860 C.3   156  ILE156      0.0020
     50  CD1      106.3360   40.3010   27.7840 C.3   156  ILE156      0.0001
     51  N        109.2440   38.4500   31.1940 N.am  157  PRO157     -0.2718
     52  CA       108.6800   38.4810   32.5460 C.3   157  PRO157      0.1535
     53  C        107.4230   39.3400   32.6080 C.2   157  PRO157      0.2599
     54  O        107.3670   40.4020   31.9860 O.2   157  PRO157     -0.2715
     55  CB       109.8030   39.1090   33.3910 C.3   157  PRO157      0.0310
     56  CG       111.0230   39.0000   32.5470 C.3   157  PRO157      0.0237
     57  CD       110.5520   39.1210   31.1400 C.3   157  PRO157      0.0939
     58  N        106.4210   38.8500   33.3240 N.am  158  ASP158     -0.1958
     59  CA       105.2770   39.6530   33.7600 C.3   158  ASP158      0.1840
     60  C        105.7260   41.0130   34.2760 C.2   158  ASP158      0.2622
     61  O        106.7660   41.1110   34.9160 O.2   158  ASP158     -0.2715
     62  CB       104.5480   38.9110   34.8860 C.3   158  ASP158      0.1450
     63  CG       103.1720   39.4740   35.1640 C.2   158  ASP158      0.3671
     64  OD1      102.2510   39.2270   34.3520 O.co2 158  ASP158     -0.2456
     65  OD2      102.9180   40.1570   36.1810 O.co2 158  ASP158     -0.2456
     66  N        104.9400   42.0530   34.0110 N.am  159  LEU159     -0.1963
     67  CA       105.2570   43.4120   34.4810 C.3   159  LEU159      0.1728
     68  C        105.4660   43.5160   35.9880 C.2   159  LEU159      0.2616
     69  O        106.3360   44.2560   36.4430 O.2   159  LEU159     -0.2715
     70  CB       104.1500   44.3910   34.0870 C.3   159  LEU159      0.0311
     71  CG       104.0340   44.6930   32.5940 C.3   159  LEU159      0.0022
     72  CD1      102.7480   45.4640   32.3430 C.3   159  LEU159      0.0001
     73  CD2      105.2570   45.4540   32.0730 C.3   159  LEU159      0.0001
     74  N        104.6710   42.7860   36.7640 N.am  160  LYS160     -0.1977
     75  CA       104.7740   42.8720   38.2210 C.3   160  LYS160      0.1596
     76  C        105.5520   41.7180   38.8950 C.2   160  LYS160      0.2287
     77  O        105.3530   41.4410   40.0740 O.2   160  LYS160     -0.2864
     78  CB       103.3870   43.1110   38.8620 C.3   160  LYS160      0.0298
     79  CG       102.2700   42.1290   38.4710 C.3   160  LYS160      0.0038
     80  CD       101.0360   42.8460   37.8840 C.3   160  LYS160      0.0206
     81  CE       100.1210   41.8770   37.1190 C.3   160  LYS160      0.1093
     82  NZ       100.1580   42.0900   35.6340 N.3   160  LYS160     -0.1314
     83  N        106.9040   34.5300   37.2310 N.3   170  TYR170     -0.1241
     84  CA       105.7580   34.7800   36.3660 C.3   170  TYR170      0.1605
     85  C        106.2500   35.3360   35.0390 C.2   170  TYR170      0.2264
     86  O        106.7890   36.4450   34.9830 O.2   170  TYR170     -0.2867
     87  CB       104.8020   35.7830   37.0240 C.3   170  TYR170      0.0534
     88  CG       103.3710   35.7490   36.5140 C.ar  170  TYR170     -0.0201
     89  CD1      103.0730   35.4870   35.1730 C.ar  170  TYR170     -0.0009
     90  CD2      102.3150   36.0040   37.3740 C.ar  170  TYR170     -0.0009
     91  CE1      101.7580   35.4700   34.7140 C.ar  170  TYR170      0.0417
     92  CE2      101.0030   35.9810   36.9340 C.ar  170  TYR170      0.0417
     93  CZ       100.7230   35.7160   35.6060 C.ar  170  TYR170      0.1957
     94  OH        99.4100   35.7010   35.1780 O.3   170  TYR170     -0.2866
     95  N        105.2480   35.4840   30.5900 N.3   172  ILE172     -0.1245
     96  CA       104.2730   35.2970   29.5320 C.3   172  ILE172      0.1561
     97  C        105.0100   35.0260   28.2360 C.2   172  ILE172      0.2260
     98  O        106.0470   35.6210   27.9830 O.2   172  ILE172     -0.2867
     99  CB       103.3980   36.5660   29.3750 C.3   172  ILE172      0.0252
    100  CG1      102.5150   36.7690   30.6050 C.3   172  ILE172      0.0019
    101  CG2      102.5090   36.4490   28.1550 C.3   172  ILE172      0.0019
    102  CD1      102.4990   38.2130   31.1160 C.3   172  ILE172      0.0001
    103  N         92.2860   39.0070   28.5680 N.3   225  SER225     -0.1202
    104  CA        92.2170   40.4640   28.5990 C.3   225  SER225      0.2020
    105  C         92.4650   41.0510   27.2060 C.2   225  SER225      0.2618
    106  O         91.8110   42.0150   26.8220 O.2   225  SER225     -0.2717
    107  CB        93.1920   41.0620   29.6320 C.3   225  SER225      0.2103
    108  OG        94.4720   40.4310   29.6140 O.3   225  SER225     -0.2182
    109  N         93.3950   40.4790   26.4460 N.am  226  TYR226     -0.1975
    110  CA        93.5720   40.9080   25.0580 C.3   226  TYR226      0.1639
    111  C         93.6680   39.7360   24.0950 C.2   226  TYR226      0.2290
    112  O         94.0190   38.6180   24.4770 O.2   226  TYR226     -0.2864
    113  CB        94.7600   41.8550   24.9090 C.3   226  TYR226      0.0560
    114  CG        96.0880   41.2050   25.1110 C.ar  226  TYR226     -0.0198
    115  CD1       96.7950   40.6790   24.0340 C.ar  226  TYR226     -0.0009
    116  CD2       96.6490   41.1170   26.3770 C.ar  226  TYR226     -0.0009
    117  CE1       98.0280   40.0780   24.2180 C.ar  226  TYR226      0.0417
    118  CE2       97.8800   40.5060   26.5750 C.ar  226  TYR226      0.0417
    119  CZ        98.5670   39.9920   25.4910 C.ar  226  TYR226      0.1957
    120  OH        99.7960   39.3950   25.6720 O.3   226  TYR226     -0.2866
    121  N         98.5180   34.2570   24.0600 N.3   230  HIS230     -0.1241
    122  CA        99.6530   34.2760   24.9580 C.3   230  HIS230      0.1621
    123  C         99.4510   33.2730   26.0880 C.2   230  HIS230      0.2264
    124  O         98.3260   32.9970   26.4810 O.2   230  HIS230     -0.2867
    125  CB        99.8920   35.6900   25.4880 C.3   230  HIS230      0.0745
    126  CG        98.6770   36.3190   26.0950 C.ar  230  HIS230      0.0817
    127  ND1       97.6230   36.7900   25.3400 N.ar  230  HIS230     -0.2268
    128  CD2       98.3570   36.5650   27.3870 C.ar  230  HIS230      0.1154
    129  CE1       96.7000   37.2880   26.1440 C.ar  230  HIS230      0.1986
    130  NE2       97.1240   37.1700   27.3900 N.ar  230  HIS230     -0.2212
    131  N        100.6920   31.8710   30.0190 N.3   232  HIS232     -0.1241
    132  CA       101.2660   32.2000   31.3110 C.3   232  HIS232      0.1621
    133  C        102.1560   31.0670   31.8260 C.2   232  HIS232      0.2264
    134  O        101.8090   29.9010   31.6860 O.2   232  HIS232     -0.2867
    135  CB       100.1390   32.4510   32.3120 C.3   232  HIS232      0.0745
    136  CG        99.2030   33.5420   31.9020 C.ar  232  HIS232      0.0817
    137  ND1       99.2540   34.8060   32.4440 N.ar  232  HIS232     -0.2268
    138  CD2       98.2000   33.5630   30.9930 C.ar  232  HIS232      0.1154
    139  CE1       98.3290   35.5620   31.8810 C.ar  232  HIS232      0.1986
    140  NE2       97.6770   34.8330   30.9960 N.ar  232  HIS232     -0.2212
@<TRIPOS>BOND
     1    17    18    2
     2    17    16    1
     3    15    16    1
     4     1     2    1
     5    16    19    1
     6     3     2    1
     7     3     4    2
     8     2     5    1
     9    19    21    1
    10    19    20    1
    11   115   117   ar
    12   115   114   ar
    13   121   122    1
    14   111   112    2
    15   111   110    1
    16   117   119   ar
    17     5     6    1
    18    20    22    1
    19     7     6   ar
    20     7     9   ar
    21     6     8   ar
    22   113   110    1
    23   113   114    1
    24   122   125    1
    25   122   123    1
    26   110   109    1
    27   114   116   ar
    28     9    10   ar
    29   127   126   ar
    30   127   129   ar
    31     8    11   ar
    32     8    10   ar
    33    23    24    1
    34   125   126    1
    35   119   120    1
    36   119   118   ar
    37    11    13   ar
    38    10    12   ar
    39    25    24    1
    40    25    26    2
    41   123   124    2
    42   126   128   ar
    43   129   130   ar
    44    13    14   ar
    45    12    14   ar
    46    24    27    1
    47   116   118   ar
    48   109   105   am
    49    27    28    1
    50   106   105    2
    51    49    47    1
    52    28    29    1
    53   105   104    1
    54   128   130   ar
    55    48    50    1
    56    48    47    1
    57    98    97    2
    58    43    44    1
    59    29    31   ar
    60    29    30   ar
    61   101    99    1
    62    47    44    1
    63    97    96    1
    64    32    33    1
    65    34    35    2
    66    34    33    1
    67   103   104    1
    68   104   107    1
    69    44    45    1
    70    33    36    1
    71    99    96    1
    72    99   100    1
    73    36    37    1
    74    96    95    1
    75   108   107    1
    76   131   132    1
    77    37    38    1
    78    45    46    2
    79    45    51   am
    80    38    39    1
    81   100   102    1
    82    41    40    1
    83   138   140   ar
    84   138   136   ar
    85   140   139   ar
    86    57    51    1
    87    57    56    1
    88    51    52    1
    89   132   133    1
    90   132   135    1
    91   134   133    2
    92    39    40    2
    93   139   137   ar
    94   136   135    1
    95   136   137   ar
    96    40    42    1
    97    54    53    2
    98    73    71    1
    99    72    71    1
   100    52    53    1
   101    52    55    1
   102    56    55    1
   103    71    70    1
   104    53    58   am
   105    58    59    1
   106    59    60    1
   107    59    62    1
   108    66    60   am
   109    66    67    1
   110    70    67    1
   111    60    61    2
   112    64    63   ar
   113    67    68    1
   114    91    89   ar
   115    91    93   ar
   116    62    63    1
   117    86    85    2
   118    85    84    1
   119    63    65   ar
   120    89    88   ar
   121    94    93    1
   122    93    92   ar
   123    82    81    1
   124    68    69    2
   125    68    74   am
   126    84    87    1
   127    84    83    1
   128    88    87    1
   129    88    90   ar
   130    74    75    1
   131    92    90   ar
   132    81    80    1
   133    80    79    1
   134    75    78    1
   135    75    76    1
   136    79    78    1
   137    76    77    2
