@<TRIPOS>MOLECULE
tmp/1xmnF00.pdb
 120 118 0 0 0
SMALL
GASTEIGER

@<TRIPOS>ATOM
      1  N         95.4260   -3.3350   41.8110 N.3    87  HIS87      -0.1227
      2  CA        94.6100   -2.2580   41.2660 C.3    87  HIS87       0.1737
      3  C         93.8270   -2.7670   40.0540 C.2    87  HIS87       0.2438
      4  O         94.3990   -3.3210   39.1120 O.2    87  HIS87      -0.2733
      5  CB        95.4760   -1.0580   40.8750 C.3    87  HIS87       0.0758
      6  CG        94.6980    0.2130   40.7260 C.ar   87  HIS87       0.0818
      7  ND1       93.7730    0.4070   39.7220 N.ar   87  HIS87      -0.2268
      8  CD2       94.6770    1.3390   41.4790 C.ar   87  HIS87       0.1154
      9  CE1       93.2160    1.5980   39.8630 C.ar   87  HIS87       0.1986
     10  NE2       93.7470    2.1830   40.9220 N.ar   87  HIS87      -0.2212
     11  N         92.4980   -2.5840   40.0690 N.am   88  PRO88      -0.2718
     12  CA        91.6230   -3.0270   38.9770 C.3    88  PRO88       0.1535
     13  C         91.9840   -2.4860   37.5950 C.2    88  PRO88       0.2598
     14  O         91.6420   -3.0970   36.5810 O.2    88  PRO88      -0.2715
     15  CB        90.2350   -2.5780   39.4420 C.3    88  PRO88       0.0310
     16  CG        90.5290   -1.3750   40.2840 C.3    88  PRO88       0.0237
     17  CD        91.7330   -1.8250   41.0740 C.3    88  PRO88       0.0939
     18  N         92.6830   -1.3560   37.5490 N.am   89  ARG89      -0.1978
     19  CA        93.0630   -0.7680   36.2700 C.3    89  ARG89       0.1597
     20  C         94.5570   -0.8560   35.9700 C.2    89  ARG89       0.2287
     21  O         95.0710   -0.1360   35.1120 O.2    89  ARG89      -0.2864
     22  CB        92.5810    0.6820   36.2020 C.3    89  ARG89       0.0334
     23  CG        91.0620    0.7920   36.1520 C.3    89  ARG89       0.0492
     24  CD        90.5760    2.2280   36.2620 C.3    89  ARG89       0.2205
     25  NE        91.0520    3.0680   35.1640 N.pl3  89  ARG89      -0.0865
     26  CZ        90.6510    4.3190   34.9580 C.cat  89  ARG89       0.5346
     27  NH1       91.1360    5.0150   33.9370 N.pl3  89  ARG89       0.1354
     28  NH2       89.7580    4.8740   35.7680 N.pl3  89  ARG89       0.1354
     29  N         99.6780    2.2410   36.9180 N.3    98  ARG98      -0.1245
     30  CA        99.0560    1.8490   38.1800 C.3    98  ARG98       0.1563
     31  C         99.6170    0.5150   38.6580 C.2    98  ARG98       0.2260
     32  O         98.8710   -0.4000   39.0070 O.2    98  ARG98      -0.2867
     33  CB        97.5360    1.7520   38.0280 C.3    98  ARG98       0.0307
     34  CG        96.9020    3.0100   37.4560 C.3    98  ARG98       0.0489
     35  CD        95.3960    2.9890   37.6270 C.3    98  ARG98       0.2205
     36  NE        94.7370    3.9840   36.7860 N.pl3  98  ARG98      -0.0865
     37  CZ        94.6540    3.9020   35.4620 C.cat  98  ARG98       0.5346
     38  NH1       95.1900    2.8690   34.8230 N.pl3  98  ARG98       0.1354
     39  NH2       94.0280    4.8470   34.7740 N.pl3  98  ARG98       0.1354
     40  N         98.2590   15.3220   51.3430 N.3   123  ARG123     -0.1245
     41  CA        98.2450   16.3700   50.3290 C.3   123  ARG123      0.1563
     42  C         99.4530   17.3030   50.3950 C.2   123  ARG123      0.2260
     43  O        100.1750   17.4590   49.4140 O.2   123  ARG123     -0.2867
     44  CB        96.9600   17.1940   50.4460 C.3   123  ARG123      0.0307
     45  CG        95.9350   16.6190   49.4830 C.3   123  ARG123      0.0489
     46  CD        96.1980   17.1160   48.0530 C.3   123  ARG123      0.2205
     47  NE        95.9640   18.5640   47.9580 N.pl3 123  ARG123     -0.0865
     48  CZ        96.9420   19.4650   47.8010 C.cat 123  ARG123      0.5346
     49  NH1       98.2130   19.0740   47.7480 N.pl3 123  ARG123      0.1354
     50  NH2       96.6420   20.7640   47.7130 N.pl3 123  ARG123      0.1354
     51  N        100.5780   10.0580   34.5990 N.3   178  ASP178     -0.1225
     52  CA       100.7650   10.8080   35.8320 C.3   178  ASP178      0.1805
     53  C        100.8150    9.8840   37.0440 C.2   178  ASP178      0.2597
     54  O        101.1110   10.3260   38.1520 O.2   178  ASP178     -0.2718
     55  CB        99.6510   11.8410   36.0240 C.3   178  ASP178      0.1424
     56  CG        99.6500   12.9080   34.9430 C.2   178  ASP178      0.3668
     57  OD1      100.7410   13.2760   34.4560 O.co2 178  ASP178     -0.2456
     58  OD2       98.5530   13.3880   34.5920 O.co2 178  ASP178     -0.2456
     59  N        100.5340    8.6000   36.8340 N.am  179  ASN179     -0.1974
     60  CA       100.5560    7.6290   37.9290 C.3   179  ASN179      0.1688
     61  C        101.9630    7.0930   38.1640 C.2   179  ASN179      0.2292
     62  O        102.1680    6.1170   38.8900 O.2   179  ASN179     -0.2864
     63  CB        99.5920    6.4820   37.6310 C.3   179  ASN179      0.1181
     64  CG        98.1540    6.9550   37.5270 C.2   179  ASN179      0.2629
     65  OD1       97.6690    7.6620   38.4030 O.2   179  ASN179     -0.2716
     66  ND2       97.4680    6.5660   36.4580 N.am  179  ASN179     -0.0877
     67  N        101.0870    8.8980   46.1220 N.3   239  PHE239     -0.1227
     68  CA       100.0500    9.8510   46.4940 C.3   239  PHE239      0.1736
     69  C         98.8750    9.8450   45.5190 C.2   239  PHE239      0.2595
     70  O         97.7170    9.8920   45.9380 O.2   239  PHE239     -0.2718
     71  CB       100.6030   11.2740   46.5980 C.3   239  PHE239      0.0547
     72  CG        99.5570   12.2860   46.9800 C.ar  239  PHE239     -0.0202
     73  CD1       98.8320   12.1370   48.1600 C.ar  239  PHE239     -0.0042
     74  CD2       99.2560   13.3530   46.1400 C.ar  239  PHE239     -0.0042
     75  CE1       97.8200   13.0340   48.4980 C.ar  239  PHE239     -0.0003
     76  CE2       98.2460   14.2580   46.4680 C.ar  239  PHE239     -0.0003
     77  CZ        97.5270   14.0960   47.6480 C.ar  239  PHE239     -0.0000
     78  N         99.1610    9.7820   44.2240 N.am  240  ARG240     -0.1980
     79  CA        98.0920    9.7840   43.2310 C.3   240  ARG240      0.1597
     80  C         97.1690    8.5790   43.3470 C.2   240  ARG240      0.2287
     81  O         96.0190    8.6340   42.9200 O.2   240  ARG240     -0.2864
     82  CB        98.6580    9.8460   41.8110 C.3   240  ARG240      0.0334
     83  CG        99.2690   11.1880   41.4320 C.3   240  ARG240      0.0492
     84  CD        98.8610   11.5770   40.0190 C.3   240  ARG240      0.2205
     85  NE        99.9760   12.1160   39.2450 N.pl3 240  ARG240     -0.0865
     86  CZ       100.5500   13.2970   39.4550 C.cat 240  ARG240      0.5346
     87  NH1      101.5630   13.6800   38.6880 N.pl3 240  ARG240      0.1354
     88  NH2      100.1080   14.0980   40.4170 N.pl3 240  ARG240      0.1354
     89  N         93.9610    7.3240   47.1400 N.3   243  LYS243     -0.1231
     90  CA        92.5190    7.1920   47.2980 C.3   243  LYS243      0.1693
     91  C         92.1600    5.7070   47.2580 C.2   243  LYS243      0.2592
     92  O         91.3560    5.2310   48.0630 O.2   243  LYS243     -0.2718
     93  CB        91.7800    7.9520   46.1880 C.3   243  LYS243      0.0285
     94  CG        90.2690    7.7610   46.2130 C.3   243  LYS243      0.0035
     95  CD        89.5600    8.5500   45.1130 C.3   243  LYS243      0.0206
     96  CE        89.2540    9.9850   45.5330 C.3   243  LYS243      0.1093
     97  NZ        88.2140   10.0500   46.6010 N.3   243  LYS243     -0.1314
     98  N         92.7780    4.9810   46.3300 N.am  244  TRP244     -0.1976
     99  CA        92.5350    3.5460   46.1850 C.3   244  TRP244      0.1640
    100  C         93.0850    2.7620   47.3720 C.2   244  TRP244      0.2290
    101  O         92.4360    1.8490   47.8810 O.2   244  TRP244     -0.2864
    102  CB        93.1830    3.0150   44.9050 C.3   244  TRP244      0.0576
    103  CG        93.0640    1.5260   44.7700 C.ar  244  TRP244      0.0006
    104  CD1       91.9520    0.8200   44.4100 C.ar  244  TRP244      0.0946
    105  CD2       94.0840    0.5580   45.0460 C.ar  244  TRP244      0.0152
    106  NE1       92.2160   -0.5310   44.4440 N.ar  244  TRP244     -0.2442
    107  CE2       93.5170   -0.7180   44.8320 C.ar  244  TRP244      0.0810
    108  CE3       95.4210    0.6450   45.4570 C.ar  244  TRP244      0.0012
    109  CZ2       94.2430   -1.9010   45.0130 C.ar  244  TRP244      0.0191
    110  CZ3       96.1430   -0.5330   45.6380 C.ar  244  TRP244      0.0001
    111  CH2       95.5470   -1.7900   45.4150 C.ar  244  TRP244      0.0015
    112  N         90.7810    3.1550   50.2720 N.3   247  LYS247     -0.1245
    113  CA        89.5190    2.4600   50.0480 C.3   247  LYS247      0.1561
    114  C         89.6630    0.9740   50.3740 C.2   247  LYS247      0.2260
    115  O         88.8330    0.3920   51.0710 O.2   247  LYS247     -0.2867
    116  CB        89.0720    2.6140   48.5930 C.3   247  LYS247      0.0271
    117  CG        87.7640    1.8950   48.2890 C.3   247  LYS247      0.0035
    118  CD        87.2690    2.1600   46.8700 C.3   247  LYS247      0.0206
    119  CE        88.1200    1.4540   45.8280 C.3   247  LYS247      0.1093
    120  NZ        87.5500    1.6110   44.4560 N.3   247  LYS247     -0.1314
@<TRIPOS>BOND
     1    27    26    1
     2    57    56   ar
     3    58    56   ar
     4    51    52    1
     5    39    37    1
     6    38    37    1
     7    56    55    1
     8    26    25    2
     9    26    28    1
    10    21    20    2
    11    25    24    1
    12    37    36    2
    13    52    55    1
    14    52    53    1
    15    20    19    1
    16    23    22    1
    17    23    24    1
    18    22    19    1
    19    19    18    1
    20    66    64   am
    21    14    13    2
    22    36    35    1
    23    59    53   am
    24    59    60    1
    25    29    30    1
    26    53    54    2
    27    34    35    1
    28    34    33    1
    29    64    63    1
    30    64    65    2
    31    18    13   am
    32    13    12    1
    33    63    60    1
    34    60    61    1
    35    33    30    1
    36    61    62    2
    37    30    31    1
    38    31    32    2
    39    87    86    1
    40    12    15    1
    41    12    11    1
    42     4     3    2
    43    85    86    2
    44    85    84    1
    45    15    16    1
    46    86    88    1
    47     7     9   ar
    48     7     6   ar
    49     9    10   ar
    50    84    83    1
    51     3    11   am
    52     3     2    1
    53    11    17    1
    54    16    17    1
    55     6     5    1
    56     6     8   ar
    57     5     2    1
    58    10     8   ar
    59     2     1    1
    60    83    82    1
    61    82    79    1
    62    81    80    2
    63    79    80    1
    64    79    78    1
    65    78    69   am
    66   104   106   ar
    67   104   103   ar
    68   106   107   ar
    69   120   119    1
    70   103   102    1
    71   103   105   ar
    72   107   109   ar
    73   107   105   ar
    74   102    99    1
    75   109   111   ar
    76   105   108   ar
    77    95    96    1
    78    95    94    1
    79   111   110   ar
    80   108   110   ar
    81    69    70    2
    82    69    68    1
    83    96    97    1
    84   119   118    1
    85    67    68    1
    86    74    76   ar
    87    74    72   ar
    88    99    98    1
    89    99   100    1
    90    93    94    1
    91    93    90    1
    92    98    91   am
    93    76    77   ar
    94    68    71    1
    95    71    72    1
    96   118   117    1
    97    72    73   ar
    98    89    90    1
    99    91    90    1
   100    91    92    2
   101   100   101    2
   102    77    75   ar
   103    50    48    1
   104    49    48    1
   105    48    47    2
   106    47    46    1
   107    46    45    1
   108    73    75   ar
   109   117   116    1
   110   116   113    1
   111    43    42    2
   112    45    44    1
   113   113   112    1
   114   113   114    1
   115    41    42    1
   116    41    44    1
   117    41    40    1
   118   114   115    2
