@<TRIPOS>MOLECULE
tmp/1xmsA00.pdb
 144 137 0 0 0
SMALL
GASTEIGER

@<TRIPOS>ATOM
      1  N         19.1000    2.7220    7.5670 N.3    66  GLU66      -0.1231
      2  CA        19.2850    3.9180    8.3660 C.3    66  GLU66       0.1699
      3  C         20.2620    3.6000    9.4980 C.2    66  GLU66       0.2593
      4  O         20.2470    2.4990   10.0460 O.2    66  GLU66      -0.2718
      5  CB        17.9320    4.3580    8.9370 C.3    66  GLU66       0.0402
      6  CG        18.0000    5.4280   10.0160 C.3    66  GLU66       0.1161
      7  CD        16.6250    5.7750   10.5720 C.2    66  GLU66       0.3649
      8  OE1       15.7900    6.3250    9.8140 O.co2  66  GLU66      -0.2457
      9  OE2       16.3800    5.4910   11.7660 O.co2  66  GLU66      -0.2457
     10  N         21.1220    4.5590    9.8280 N.am   67  SER67      -0.1938
     11  CA        22.0980    4.4030   10.9030 C.3    67  SER67       0.2055
     12  C         23.1510    3.3330   10.6310 C.2    67  SER67       0.2644
     13  O         23.7560    2.8040   11.5650 O.2    67  SER67      -0.2714
     14  CB        21.3760    4.0750   12.2140 C.3    67  SER67       0.2130
     15  OG        20.3500    5.0170   12.4770 O.3    67  SER67      -0.2179
     16  N         23.3760    3.0160    9.3600 N.am   68  SER68      -0.1935
     17  CA        24.3620    2.0060    9.0060 C.3    68  SER68       0.2055
     18  C         25.7800    2.5800    8.9670 C.2    68  SER68       0.2644
     19  O         26.7560    1.8310    9.0450 O.2    68  SER68      -0.2714
     20  CB        24.0130    1.3820    7.6530 C.3    68  SER68       0.2130
     21  OG        24.0250    2.3510    6.6250 O.3    68  SER68      -0.2179
     22  N         25.8810    3.9040    8.8420 N.am   69  GLY69      -0.1939
     23  CA        27.1740    4.5660    8.8030 C.3    69  GLY69       0.2014
     24  C         27.5460    5.2090    7.4750 C.2    69  GLY69       0.2639
     25  O         28.6990    5.5960    7.2800 O.2    69  GLY69      -0.2714
     26  N         26.5820    5.3390    6.5680 N.am   70  LYS70      -0.1963
     27  CA        26.8340    5.9190    5.2470 C.3    70  LYS70       0.1728
     28  C         27.4620    7.3130    5.2760 C.2    70  LYS70       0.2617
     29  O         28.4400    7.5820    4.5740 O.2    70  LYS70      -0.2715
     30  CB        25.5350    5.9950    4.4410 C.3    70  LYS70       0.0311
     31  CG        24.7820    4.6840    4.3050 C.3    70  LYS70       0.0038
     32  CD        23.4990    4.8720    3.5070 C.3    70  LYS70       0.0206
     33  CE        22.5110    5.7800    4.2160 C.3    70  LYS70       0.1093
     34  NZ        21.8110    5.1150    5.3500 N.3    70  LYS70      -0.1314
     35  N         26.8790    8.2070    6.0680 N.am   71  THR71      -0.1937
     36  CA        27.3670    9.5760    6.1750 C.3    71  THR71       0.2028
     37  C         28.7540    9.6400    6.8130 C.2    71  THR71       0.2642
     38  O         29.6400   10.3380    6.3170 O.2    71  THR71      -0.2714
     39  CB        26.3680   10.4470    6.9710 C.3    71  THR71       0.1808
     40  OG1       25.2380   10.7360    6.1400 O.3    71  THR71      -0.2208
     41  CG2       27.0060   11.7540    7.4120 C.3    71  THR71       0.0379
     42  N         28.9400    8.9130    7.9070 N.am   72  THR72      -0.1950
     43  CA        30.2320    8.8890    8.5760 C.3    72  THR72       0.1897
     44  C         31.3090    8.5160    7.5620 C.2    72  THR72       0.2313
     45  O         32.3710    9.1420    7.4980 O.2    72  THR72      -0.2863
     46  CB        30.2520    7.8530    9.7070 C.3    72  THR72       0.1794
     47  OG1       29.4000    8.2900   10.7690 O.3    72  THR72      -0.2208
     48  CG2       31.6650    7.6630   10.2300 C.3    72  THR72       0.0378
     49  N         19.1520   16.0020    2.6260 N.3    94  GLU94      -0.1245
     50  CA        18.7540   15.3740    3.8860 C.3    94  GLU94       0.1567
     51  C         18.6430   16.3900    5.0150 C.2    94  GLU94       0.2260
     52  O         17.8360   16.2280    5.9290 O.2    94  GLU94      -0.2867
     53  CB        19.7710   14.2930    4.2730 C.3    94  GLU94       0.0388
     54  CG        19.8440   13.1160    3.2920 C.3    94  GLU94       0.1160
     55  CD        18.8480   12.0040    3.6130 C.2    94  GLU94       0.3649
     56  OE1       18.9930   11.3610    4.6780 O.co2  94  GLU94      -0.2457
     57  OE2       17.9240   11.7700    2.8070 O.co2  94  GLU94      -0.2457
     58  N         26.0640   17.2670   10.7560 N.3    98  ASP98      -0.1239
     59  CA        26.4730   17.7530   12.0730 C.3    98  ASP98       0.1674
     60  C         27.9310   18.1910   11.9610 C.2    98  ASP98       0.2266
     61  O         28.8390   17.3670   12.0130 O.2    98  ASP98      -0.2867
     62  CB        26.3640   16.6450   13.1220 C.3    98  ASP98       0.1410
     63  CG        26.7850   17.1140   14.5010 C.2    98  ASP98       0.3668
     64  OD1       27.6270   18.0270   14.5900 O.co2  98  ASP98      -0.2456
     65  OD2       26.2880   16.5670   15.5020 O.co2  98  ASP98      -0.2456
     66  N         30.4340   16.9080   14.7060 N.3   101  TYR101     -0.1241
     67  CA        30.8770   15.5390   14.4720 C.3   101  TYR101      0.1605
     68  C         31.8460   15.4930   13.2870 C.2   101  TYR101      0.2264
     69  O         32.8340   14.7610   13.3110 O.2   101  TYR101     -0.2867
     70  CB        29.6730   14.6420   14.1840 C.3   101  TYR101      0.0534
     71  CG        30.0190   13.2020   13.8770 C.ar  101  TYR101     -0.0201
     72  CD1       30.6840   12.4040   14.8100 C.ar  101  TYR101     -0.0009
     73  CD2       29.6430   12.6220   12.6650 C.ar  101  TYR101     -0.0009
     74  CE1       30.9580   11.0570   14.5430 C.ar  101  TYR101      0.0417
     75  CE2       29.9100   11.2850   12.3880 C.ar  101  TYR101      0.0417
     76  CZ        30.5650   10.5060   13.3270 C.ar  101  TYR101      0.1957
     77  OH        30.8160    9.1820   13.0450 O.3   101  TYR101     -0.2866
     78  N         35.3160   16.5350   14.1450 N.3   104  LYS104     -0.1245
     79  CA        35.9510   15.4780   14.9150 C.3   104  LYS104      0.1561
     80  C         36.5490   14.4360   13.9760 C.2   104  LYS104      0.2260
     81  O         37.5810   13.8410   14.2820 O.2   104  LYS104     -0.2867
     82  CB        34.9510   14.8090   15.8570 C.3   104  LYS104      0.0271
     83  CG        34.5880   15.6570   17.0600 C.3   104  LYS104      0.0035
     84  CD        33.5790   14.9510   17.9520 C.3   104  LYS104      0.0206
     85  CE        33.2250   15.7940   19.1690 C.3   104  LYS104      0.1093
     86  NZ        32.2700   15.0800   20.0650 N.3   104  LYS104     -0.1314
     87  N         19.6370    5.5070    0.7400 N.3   182  GLN182     -0.1245
     88  CA        19.0960    4.8260    1.9040 C.3   182  GLN182      0.1566
     89  C         18.1380    3.7150    1.4980 C.2   182  GLN182      0.2260
     90  O         17.2640    3.9180    0.6610 O.2   182  GLN182     -0.2867
     91  CB        18.3840    5.8240    2.8250 C.3   182  GLN182      0.0367
     92  CG        17.9630    5.2330    4.1750 C.3   182  GLN182      0.0905
     93  CD        17.4550    6.2820    5.1630 C.2   182  GLN182      0.2608
     94  OE1       16.4870    7.0010    4.8920 O.2   182  GLN182     -0.2717
     95  NE2       18.1070    6.3680    6.3190 N.am  182  GLN182     -0.0878
     96  N         24.8770   -2.1470    9.9310 N.3   199  ARG199     -0.1245
     97  CA        25.2410   -2.3370   11.3260 C.3   199  ARG199      0.1563
     98  C         24.9720   -3.8050   11.6470 C.2   199  ARG199      0.2260
     99  O         23.8610   -4.2920   11.4560 O.2   199  ARG199     -0.2867
    100  CB        24.3690   -1.4240   12.1920 C.3   199  ARG199      0.0307
    101  CG        24.6060   -1.4870   13.6910 C.3   199  ARG199      0.0489
    102  CD        23.7560   -0.4250   14.3750 C.3   199  ARG199      0.2205
    103  NE        24.0560   -0.2810   15.7960 N.pl3 199  ARG199     -0.0865
    104  CZ        23.7800   -1.1970   16.7200 C.cat 199  ARG199      0.5346
    105  NH1       23.1920   -2.3380   16.3770 N.pl3 199  ARG199      0.1354
    106  NH2       24.0980   -0.9720   17.9900 N.pl3 199  ARG199      0.1354
    107  N         29.2060    0.9400   16.8600 N.3   212  SER212     -0.1217
    108  CA        28.5240   -0.0440   16.0360 C.3   212  SER212      0.1889
    109  C         29.5130   -0.9390   15.3160 C.2   212  SER212      0.2288
    110  O         30.5360   -0.4710   14.8200 O.2   212  SER212     -0.2866
    111  CB        27.6510    0.6480   14.9830 C.3   212  SER212      0.2089
    112  OG        26.7950    1.6160   15.5610 O.3   212  SER212     -0.2183
    113  N         32.5030    1.7080   14.3640 N.3   234  ILE234     -0.1231
    114  CA        32.2930    3.1400   14.2570 C.3   234  ILE234      0.1692
    115  C         31.9500    3.5840   15.6670 C.2   234  ILE234      0.2592
    116  O         30.8790    3.2660   16.1850 O.2   234  ILE234     -0.2718
    117  CB        31.1410    3.4990   13.3130 C.3   234  ILE234      0.0266
    118  CG1       31.5260    3.1420   11.8730 C.3   234  ILE234      0.0019
    119  CG2       30.8400    4.9880   13.4220 C.3   234  ILE234      0.0020
    120  CD1       30.4820    3.5040   10.8360 C.3   234  ILE234      0.0001
    121  N         32.8830    4.2860   16.3020 N.am  235  LEU235     -0.1966
    122  CA        32.6730    4.7520   17.6610 C.3   235  LEU235      0.1728
    123  C         31.9160    6.0690   17.6810 C.2   235  LEU235      0.2616
    124  O         32.2090    6.9870   16.9090 O.2   235  LEU235     -0.2715
    125  CB        34.0160    4.8970   18.3820 C.3   235  LEU235      0.0311
    126  CG        34.7950    3.5810   18.4910 C.3   235  LEU235      0.0022
    127  CD1       36.1050    3.8000   19.2440 C.3   235  LEU235      0.0001
    128  CD2       33.9300    2.5410   19.2000 C.3   235  LEU235      0.0001
    129  N         30.9360    6.1440   18.5740 N.am  236  TYR236     -0.1960
    130  CA        30.1060    7.3260   18.7180 C.3   236  TYR236      0.1771
    131  C         30.9420    8.5710   18.9530 C.2   236  TYR236      0.2620
    132  O         31.7640    8.6180   19.8650 O.2   236  TYR236     -0.2715
    133  CB        29.1060    7.1280   19.8630 C.3   236  TYR236      0.0574
    134  CG        28.0940    6.0220   19.6050 C.ar  236  TYR236     -0.0198
    135  CD1       26.9410    5.9020   20.3840 C.ar  236  TYR236     -0.0009
    136  CD2       28.2760    5.1100   18.5620 C.ar  236  TYR236     -0.0009
    137  CE1       25.9940    4.9010   20.1230 C.ar  236  TYR236      0.0417
    138  CE2       27.3370    4.1150   18.2930 C.ar  236  TYR236      0.0417
    139  CZ        26.2030    4.0150   19.0730 C.ar  236  TYR236      0.1957
    140  OH        25.2850    3.0290   18.7900 O.3   236  TYR236     -0.2866
    141  N         30.7350    9.5720   18.1040 N.am  237  GLY237     -0.1954
    142  CA        31.4670   10.8160   18.2280 C.3   237  GLY237      0.1869
    143  C         32.9200   10.7540   17.8010 C.2   237  GLY237      0.2309
    144  O         33.6380   11.7420   17.9300 O.2   237  GLY237     -0.2863
@<TRIPOS>BOND
     1    90    89    2
     2    87    88    1
     3    89    88    1
     4    88    91    1
     5    49    50    1
     6    57    55   ar
     7    91    92    1
     8    54    55    1
     9    54    53    1
    10    32    33    1
    11    32    31    1
    12    55    56   ar
    13    50    53    1
    14    50    51    1
    15    92    93    1
    16    33    34    1
    17    31    30    1
    18    30    27    1
    19    29    28    2
    20    94    93    2
    21    51    52    2
    22    93    95   am
    23    27    28    1
    24    27    26    1
    25    28    35   am
    26    35    36    1
    27    40    39    1
    28    36    37    1
    29    36    39    1
    30    38    37    2
    31    26    24   am
    32    21    20    1
    33    37    42   am
    34    39    41    1
    35    25    24    2
    36    24    23    1
    37    45    44    2
    38    44    43    1
    39     1     2    1
    40    20    17    1
    41    42    43    1
    42     2     5    1
    43     2     3    1
    44    43    46    1
    45    23    22    1
    46    22    18   am
    47     5     6    1
    48    18    17    1
    49    18    19    2
    50    17    16    1
    51    16    12   am
    52     3    10   am
    53     3     4    2
    54    46    48    1
    55    46    47    1
    56     8     7   ar
    57    10    11    1
    58    96    97    1
    59     6     7    1
    60     7     9   ar
    61    12    11    1
    62    12    13    2
    63    58    59    1
    64   120   118    1
    65    11    14    1
    66    97    98    1
    67    97   100    1
    68    99    98    2
    69   118   117    1
    70    60    61    2
    71    60    59    1
    72    59    62    1
    73   100   101    1
    74    14    15    1
    75    75    73   ar
    76    75    76   ar
    77    73    71   ar
    78    77    76    1
    79    62    63    1
    80    68    69    2
    81    68    67    1
    82   117   119    1
    83   117   114    1
    84    76    74   ar
    85   101   102    1
    86    71    70    1
    87    71    72   ar
    88    80    81    2
    89    80    79    1
    90    78    79    1
    91    70    67    1
    92   114   113    1
    93   114   115    1
    94   102   103    1
    95    67    66    1
    96    63    64   ar
    97    63    65   ar
    98    74    72   ar
    99   110   109    2
   100    79    82    1
   101   111   112    1
   102   111   108    1
   103   109   108    1
   104   115   116    2
   105   115   121   am
   106   103   104    2
   107    82    83    1
   108   108   107    1
   109   121   122    1
   110   105   104    1
   111   104   106    1
   112   124   123    2
   113    83    84    1
   114   122   123    1
   115   122   125    1
   116   123   129   am
   117   143   144    2
   118   143   142    1
   119    84    85    1
   120   141   142    1
   121   141   131   am
   122   138   136   ar
   123   138   139   ar
   124   125   126    1
   125   126   128    1
   126   126   127    1
   127   136   134   ar
   128   129   130    1
   129   130   131    1
   130   130   133    1
   131   140   139    1
   132   131   132    2
   133   139   137   ar
   134    85    86    1
   135   134   133    1
   136   134   135   ar
   137   137   135   ar
