@<TRIPOS>MOLECULE
tmp/1xmvA00.pdb
 130 125 0 0 0
SMALL
GASTEIGER

@<TRIPOS>ATOM
      1  N         19.2370    3.3170    8.1020 N.3    66  GLU66      -0.1231
      2  CA        19.5860    4.4890    8.8830 C.3    66  GLU66       0.1699
      3  C         20.4870    4.0540   10.0390 C.2    66  GLU66       0.2593
      4  O         20.3260    2.9640   10.5890 O.2    66  GLU66      -0.2718
      5  CB        18.3230    5.1580    9.4310 C.3    66  GLU66       0.0402
      6  CG        18.5990    6.2930   10.4000 C.3    66  GLU66       0.1161
      7  CD        17.3370    7.0240   10.8120 C.2    66  GLU66       0.3649
      8  OE1       16.3860    6.3580   11.2750 O.co2  66  GLU66      -0.2457
      9  OE2       17.2990    8.2650   10.6770 O.co2  66  GLU66      -0.2457
     10  N         21.4520    4.9040   10.3740 N.am   67  SER67      -0.1938
     11  CA        22.3920    4.6630   11.4620 C.3    67  SER67       0.2055
     12  C         23.3960    3.5380   11.2510 C.2    67  SER67       0.2644
     13  O         23.9800    3.0420   12.2160 O.2    67  SER67      -0.2714
     14  CB        21.6260    4.4240   12.7670 C.3    67  SER67       0.2130
     15  OG        20.8300    5.5500   13.0890 O.3    67  SER67      -0.2179
     16  N         23.6140    3.1460    9.9990 N.am   68  SER68      -0.1935
     17  CA        24.5670    2.0830    9.6990 C.3    68  SER68       0.2055
     18  C         25.9890    2.6270    9.5500 C.2    68  SER68       0.2644
     19  O         26.9520    1.8620    9.5860 O.2    68  SER68      -0.2714
     20  CB        24.1500    1.3300    8.4280 C.3    68  SER68       0.2130
     21  OG        23.8790    2.2210    7.3640 O.3    68  SER68      -0.2179
     22  N         26.1110    3.9450    9.3860 N.am   69  GLY69      -0.1939
     23  CA        27.4170    4.5730    9.2580 C.3    69  GLY69       0.2014
     24  C         27.7370    5.2300    7.9230 C.2    69  GLY69       0.2639
     25  O         28.8930    5.5630    7.6600 O.2    69  GLY69      -0.2714
     26  N         26.7300    5.4350    7.0810 N.am   70  LYS70      -0.1963
     27  CA        26.9590    6.0370    5.7660 C.3    70  LYS70       0.1728
     28  C         27.5490    7.4450    5.8460 C.2    70  LYS70       0.2617
     29  O         28.5710    7.7410    5.2230 O.2    70  LYS70      -0.2715
     30  CB        25.6510    6.0800    4.9720 C.3    70  LYS70       0.0311
     31  CG        25.0070    4.7140    4.7360 C.3    70  LYS70       0.0038
     32  CD        23.7240    4.8360    3.9010 C.3    70  LYS70       0.0206
     33  CE        22.6790    5.7200    4.5770 C.3    70  LYS70       0.1093
     34  NZ        22.1950    5.1520    5.8780 N.3    70  LYS70      -0.1314
     35  N         26.9010    8.3170    6.6110 N.am   71  THR71      -0.1937
     36  CA        27.3670    9.6880    6.7530 C.3    71  THR71       0.2028
     37  C         28.7610    9.7400    7.3730 C.2    71  THR71       0.2642
     38  O         29.6120   10.5150    6.9400 O.2    71  THR71      -0.2714
     39  CB        26.3940   10.5090    7.6170 C.3    71  THR71       0.1808
     40  OG1       25.1140   10.5440    6.9790 O.3    71  THR71      -0.2208
     41  CG2       26.9010   11.9300    7.7930 C.3    71  THR71       0.0379
     42  N         28.9850    8.9140    8.3890 N.am   72  THR72      -0.1950
     43  CA        30.2790    8.8630    9.0590 C.3    72  THR72       0.1897
     44  C         31.3790    8.5480    8.0490 C.2    72  THR72       0.2313
     45  O         32.4340    9.1880    8.0350 O.2    72  THR72      -0.2863
     46  CB        30.2860    7.7910   10.1610 C.3    72  THR72       0.1794
     47  OG1       29.4850    8.2340   11.2640 O.3    72  THR72      -0.2208
     48  CG2       31.7100    7.5260   10.6470 C.3    72  THR72       0.0378
     49  N         25.9650   17.3680   11.4110 N.3    98  ASP98      -0.1239
     50  CA        26.3900   17.8460   12.7280 C.3    98  ASP98       0.1674
     51  C         27.8590   18.2620   12.6190 C.2    98  ASP98       0.2266
     52  O         28.7560   17.4180   12.6540 O.2    98  ASP98      -0.2867
     53  CB        26.2390   16.7320   13.7660 C.3    98  ASP98       0.1410
     54  CG        26.6880   17.1610   15.1550 C.2    98  ASP98       0.3668
     55  OD1       27.1690   18.3030   15.3020 O.co2  98  ASP98      -0.2456
     56  OD2       26.5600   16.3540   16.1000 O.co2  98  ASP98      -0.2456
     57  N         30.3960   16.8830   15.2490 N.3   101  TYR101     -0.1241
     58  CA        30.8230   15.5120   15.0050 C.3   101  TYR101      0.1605
     59  C         31.7800   15.4890   13.8150 C.2   101  TYR101      0.2264
     60  O         32.7910   14.7900   13.8360 O.2   101  TYR101     -0.2867
     61  CB        29.6020   14.6290   14.7290 C.3   101  TYR101      0.0534
     62  CG        29.9250   13.1810   14.4210 C.ar  101  TYR101     -0.0201
     63  CD1       30.6360   12.3920   15.3290 C.ar  101  TYR101     -0.0009
     64  CD2       29.4950   12.5900   13.2310 C.ar  101  TYR101     -0.0009
     65  CE1       30.9090   11.0510   15.0600 C.ar  101  TYR101      0.0417
     66  CE2       29.7630   11.2470   12.9520 C.ar  101  TYR101      0.0417
     67  CZ        30.4690   10.4860   13.8700 C.ar  101  TYR101      0.1957
     68  OH        30.7340    9.1630   13.6010 O.3   101  TYR101     -0.2866
     69  N         19.6450    5.5250    1.2960 N.3   177  GLN177     -0.1245
     70  CA        19.1170    4.8660    2.4820 C.3   177  GLN177      0.1566
     71  C         17.9260    3.9750    2.1720 C.2   177  GLN177      0.2260
     72  O         17.9330    2.7900    2.5110 O.2   177  GLN177     -0.2867
     73  CB        18.7370    5.9080    3.5360 C.3   177  GLN177      0.0367
     74  CG        18.3660    5.3160    4.8890 C.3   177  GLN177      0.0905
     75  CD        18.6670    6.2640    6.0360 C.2   177  GLN177      0.2608
     76  OE1       19.8300    6.5810    6.3080 O.2   177  GLN177     -0.2717
     77  NE2       17.6200    6.7280    6.7140 N.am  177  GLN177     -0.0878
     78  N         24.8250   -2.2720   10.3480 N.3   192  ARG192     -0.1245
     79  CA        25.2080   -2.4050   11.7470 C.3   192  ARG192      0.1563
     80  C         24.9240   -3.8630   12.0990 C.2   192  ARG192      0.2260
     81  O         23.8160   -4.3520   11.8780 O.2   192  ARG192     -0.2867
     82  CB        24.3580   -1.4660   12.6060 C.3   192  ARG192      0.0307
     83  CG        24.6070   -1.5520   14.1060 C.3   192  ARG192      0.0489
     84  CD        23.7910   -0.4880   14.8290 C.3   192  ARG192      0.2205
     85  NE        23.9940   -0.5010   16.2760 N.pl3 192  ARG192     -0.0865
     86  CZ        23.6440   -1.5050   17.0740 C.cat 192  ARG192      0.5346
     87  NH1       23.0700   -2.5900   16.5700 N.pl3 192  ARG192      0.1354
     88  NH2       23.8640   -1.4210   18.3790 N.pl3 192  ARG192      0.1354
     89  N         29.1150    2.2500   20.8500 N.3   204  GLY204     -0.1210
     90  CA        29.2960    2.2290   19.4120 C.3   204  GLY204      0.1956
     91  C         28.5860    1.0770   18.7390 C.2   204  GLY204      0.2612
     92  O         27.7760    0.3850   19.3590 O.2   204  GLY204     -0.2717
     93  N         28.9030    0.8630   17.4660 N.am  205  SER205     -0.1952
     94  CA        28.2800   -0.2020   16.6960 C.3   205  SER205      0.1924
     95  C         29.2940   -1.0280   15.9270 C.2   205  SER205      0.2314
     96  O         30.2890   -0.5030   15.4280 O.2   205  SER205     -0.2863
     97  CB        27.2760    0.3880   15.6990 C.3   205  SER205      0.2116
     98  OG        26.2970    1.1760   16.3550 O.3   205  SER205     -0.2180
     99  N         32.3040    1.6340   14.9060 N.3   227  ILE227     -0.1231
    100  CA        32.0690    3.0590   14.7840 C.3   227  ILE227      0.1692
    101  C         31.6820    3.4600   16.2000 C.2   227  ILE227      0.2592
    102  O         30.6590    3.0190   16.7270 O.2   227  ILE227     -0.2718
    103  CB        30.9130    3.3940   13.8220 C.3   227  ILE227      0.0266
    104  CG1       31.3040    3.0250   12.3880 C.3   227  ILE227      0.0019
    105  CG2       30.5890    4.8860   13.9120 C.3   227  ILE227      0.0020
    106  CD1       30.2220    3.3090   11.3580 C.3   227  ILE227      0.0001
    107  N         32.5320    4.2620   16.8250 N.am  228  LEU228     -0.1966
    108  CA        32.2990    4.7170   18.1860 C.3   228  LEU228      0.1728
    109  C         31.5670    6.0500   18.1910 C.2   228  LEU228      0.2616
    110  O         31.8910    6.9520   17.4160 O.2   228  LEU228     -0.2715
    111  CB        33.6360    4.8390   18.9230 C.3   228  LEU228      0.0311
    112  CG        34.2410    3.5380   19.4700 C.3   228  LEU228      0.0022
    113  CD1       34.0370    2.3900   18.4980 C.3   228  LEU228      0.0001
    114  CD2       35.7210    3.7550   19.7500 C.3   228  LEU228      0.0001
    115  N         30.5730    6.1650   19.0650 N.am  229  TYR229     -0.1960
    116  CA        29.7920    7.3860   19.1660 C.3   229  TYR229      0.1771
    117  C         30.7030    8.5810   19.4220 C.2   229  TYR229      0.2620
    118  O         31.5620    8.5450   20.3030 O.2   229  TYR229     -0.2715
    119  CB        28.7520    7.2540   20.2870 C.3   229  TYR229      0.0574
    120  CG        27.8580    8.4670   20.4630 C.ar  229  TYR229     -0.0198
    121  CD1       28.3210    9.6150   21.1110 C.ar  229  TYR229     -0.0009
    122  CD2       26.5500    8.4700   19.9730 C.ar  229  TYR229     -0.0009
    123  CE1       27.5050   10.7350   21.2670 C.ar  229  TYR229      0.0417
    124  CE2       25.7260    9.5870   20.1220 C.ar  229  TYR229      0.0417
    125  CZ        26.2110   10.7140   20.7700 C.ar  229  TYR229      0.1957
    126  OH        25.4060   11.8210   20.9150 O.3   229  TYR229     -0.2866
    127  N         30.5200    9.6280   18.6240 N.am  230  GLY230     -0.1954
    128  CA        31.3090   10.8350   18.7710 C.3   230  GLY230      0.1869
    129  C         32.7700   10.7270   18.3840 C.2   230  GLY230      0.2309
    130  O         33.5180   11.6870   18.5470 O.2   230  GLY230     -0.2863
@<TRIPOS>BOND
     1    69    70    1
     2    71    70    1
     3    71    72    2
     4    70    73    1
     5    73    74    1
     6    32    33    1
     7    32    31    1
     8    33    34    1
     9    31    30    1
    10    74    75    1
    11    30    27    1
    12    29    28    2
    13    27    28    1
    14    27    26    1
    15    28    35   am
    16    75    76    2
    17    75    77   am
    18    35    36    1
    19    36    37    1
    20    36    39    1
    21    38    37    2
    22    40    39    1
    23    26    24   am
    24    21    20    1
    25    37    42   am
    26    39    41    1
    27    25    24    2
    28    24    23    1
    29    45    44    2
    30    44    43    1
    31     1     2    1
    32    42    43    1
    33    20    17    1
    34     2     5    1
    35     2     3    1
    36    43    46    1
    37    23    22    1
    38    22    18   am
    39     5     6    1
    40    18    19    2
    41    18    17    1
    42    17    16    1
    43    16    12   am
    44     3    10   am
    45     3     4    2
    46    46    48    1
    47    46    47    1
    48    78    79    1
    49    10    11    1
    50     6     7    1
    51     9     7   ar
    52     7     8   ar
    53    12    11    1
    54    12    13    2
    55   106   104    1
    56    49    50    1
    57    11    14    1
    58    79    80    1
    59    79    82    1
    60    81    80    2
    61   104   103    1
    62    82    83    1
    63    51    52    2
    64    51    50    1
    65    50    53    1
    66    14    15    1
    67    66    64   ar
    68    66    67   ar
    69    64    62   ar
    70    68    67    1
    71    53    54    1
    72    59    60    2
    73    59    58    1
    74   103   105    1
    75   103   100    1
    76    67    65   ar
    77    83    84    1
    78    62    61    1
    79    62    63   ar
    80    61    58    1
    81   100    99    1
    82   100   101    1
    83    84    85    1
    84    58    57    1
    85    65    63   ar
    86    54    55   ar
    87    54    56   ar
    88    96    95    2
    89    97    98    1
    90    97    94    1
    91    95    94    1
    92   101   102    2
    93   101   107   am
    94    85    86    2
    95    87    86    1
    96    94    93    1
    97   107   108    1
    98    86    88    1
    99   110   109    2
   100    93    91   am
   101   108   109    1
   102   108   111    1
   103   109   115   am
   104   129   130    2
   105   129   128    1
   106   113   112    1
   107   127   128    1
   108   127   117   am
   109    91    92    2
   110    91    90    1
   111   111   112    1
   112   115   116    1
   113   116   117    1
   114   116   119    1
   115    90    89    1
   116   117   118    2
   117   112   114    1
   118   122   124   ar
   119   122   120   ar
   120   124   125   ar
   121   119   120    1
   122   120   121   ar
   123   125   126    1
   124   125   123   ar
   125   121   123   ar
