@<TRIPOS>MOLECULE
tmp/1xnfB00.pdb
 109 107 0 0 0
SMALL
GASTEIGER

@<TRIPOS>ATOM
      1  N        -14.4870   27.8600  -24.4130 N.3   107  TYR107     -0.1241
      2  CA       -13.7170   28.7980  -23.6360 C.3   107  TYR107      0.1605
      3  C        -12.3580   29.0180  -24.2660 C.2   107  TYR107      0.2264
      4  O        -11.7430   30.0710  -24.0930 O.2   107  TYR107     -0.2867
      5  CB       -13.6780   28.3880  -22.1190 C.3   107  TYR107      0.0534
      6  CG       -14.8790   28.9780  -21.4000 C.ar  107  TYR107     -0.0201
      7  CD1      -16.1340   28.4260  -21.5730 C.ar  107  TYR107     -0.0009
      8  CD2      -14.7810   30.1750  -20.6380 C.ar  107  TYR107     -0.0009
      9  CE1      -17.2850   28.9990  -20.9710 C.ar  107  TYR107      0.0417
     10  CE2      -15.9380   30.7730  -20.0170 C.ar  107  TYR107      0.0417
     11  CZ       -17.1820   30.1490  -20.2020 C.ar  107  TYR107      0.1957
     12  OH       -18.3490   30.6170  -19.6520 O.3   107  TYR107     -0.2866
     13  N        -12.5870   32.1780  -26.1780 N.3   110  LEU110     -0.1245
     14  CA       -12.4780   33.3420  -25.3120 C.3   110  LEU110      0.1561
     15  C        -11.0280   33.5430  -24.9710 C.2   110  LEU110      0.2260
     16  O        -10.4900   34.6250  -25.1190 O.2   110  LEU110     -0.2867
     17  CB       -13.2780   33.1420  -24.0500 C.3   110  LEU110      0.0270
     18  CG       -12.9750   34.1710  -22.9670 C.3   110  LEU110      0.0019
     19  CD1      -13.3450   35.5370  -23.4570 C.3   110  LEU110      0.0001
     20  CD2      -13.6830   33.8660  -21.6340 C.3   110  LEU110      0.0001
     21  N        -24.3740   37.3600  -22.8530 N.3   139  ASP139     -0.1239
     22  CA       -23.3320   37.4450  -21.8640 C.3   139  ASP139      0.1674
     23  C        -22.5540   38.7850  -22.1530 C.2   139  ASP139      0.2266
     24  O        -21.7490   38.8320  -23.0930 O.2   139  ASP139     -0.2867
     25  CB       -22.4300   36.2060  -21.9460 C.3   139  ASP139      0.1410
     26  CG       -21.2760   36.2240  -20.9600 C.2   139  ASP139      0.3668
     27  OD1      -21.0660   37.2320  -20.2500 O.co2 139  ASP139     -0.2456
     28  OD2      -20.4610   35.3100  -20.8900 O.co2 139  ASP139     -0.2456
     29  N        -20.0640   40.2190  -20.9640 N.3   141  PHE141     -0.1241
     30  CA       -18.6100   40.1520  -20.9570 C.3   141  PHE141      0.1605
     31  C        -18.0730   39.7480  -22.3020 C.2   141  PHE141      0.2264
     32  O        -16.9640   40.1250  -22.6510 O.2   141  PHE141     -0.2867
     33  CB       -18.0810   39.2780  -19.8180 C.3   141  PHE141      0.0534
     34  CG       -18.4790   39.8450  -18.4590 C.ar  141  PHE141     -0.0203
     35  CD1      -19.5580   39.3200  -17.7590 C.ar  141  PHE141     -0.0042
     36  CD2      -17.8620   40.9760  -17.9890 C.ar  141  PHE141     -0.0042
     37  CE1      -19.9660   39.9070  -16.5740 C.ar  141  PHE141     -0.0003
     38  CE2      -18.2640   41.6050  -16.8210 C.ar  141  PHE141     -0.0003
     39  CZ       -19.3160   41.0630  -16.0900 C.ar  141  PHE141     -0.0000
     40  N        -15.4570   42.1310  -24.3490 N.3   145  TRP145     -0.1241
     41  CA       -14.1470   41.6890  -24.8980 C.3   145  TRP145      0.1605
     42  C        -14.0570   41.9110  -26.3890 C.2   145  TRP145      0.2264
     43  O        -13.0000   42.2690  -26.9010 O.2   145  TRP145     -0.2867
     44  CB       -13.8610   40.2150  -24.4940 C.3   145  TRP145      0.0550
     45  CG       -13.2020   40.1840  -23.1940 C.ar  145  TRP145      0.0003
     46  CD1      -13.7560   39.8060  -22.0140 C.ar  145  TRP145      0.0946
     47  CD2      -11.8550   40.5640  -22.8970 C.ar  145  TRP145      0.0152
     48  NE1      -12.8500   39.9890  -21.0080 N.ar  145  TRP145     -0.2442
     49  CE2      -11.6760   40.4290  -21.5230 C.ar  145  TRP145      0.0810
     50  CE3      -10.7860   41.0200  -23.6550 C.ar  145  TRP145      0.0012
     51  CZ2      -10.4710   40.6990  -20.8780 C.ar  145  TRP145      0.0191
     52  CZ3       -9.5920   41.3120  -23.0130 C.ar  145  TRP145      0.0001
     53  CH2       -9.4530   41.1730  -21.6320 C.ar  145  TRP145      0.0015
     54  N        -14.7140   42.6490  -11.6230 N.3   210  GLU210     -0.1245
     55  CA       -15.0180   42.8210  -13.0550 C.3   210  GLU210      0.1567
     56  C        -15.0440   44.2960  -13.4090 C.2   210  GLU210      0.2260
     57  O        -14.3910   44.7660  -14.3320 O.2   210  GLU210     -0.2867
     58  CB       -16.3410   42.2030  -13.3640 C.3   210  GLU210      0.0388
     59  CG       -16.2940   40.7230  -13.3550 C.3   210  GLU210      0.1160
     60  CD       -17.6480   40.0280  -13.2360 C.2   210  GLU210      0.3649
     61  OE1      -18.5980   40.5990  -12.7160 O.co2 210  GLU210     -0.2457
     62  OE2      -17.7180   38.8390  -13.6120 O.co2 210  GLU210     -0.2457
     63  N        -12.7860   46.7290  -16.0460 N.3   214  TYR214     -0.1241
     64  CA       -13.2680   47.3690  -17.2480 C.3   214  TYR214      0.1605
     65  C        -13.0920   48.9060  -17.1160 C.2   214  TYR214      0.2264
     66  O        -12.8260   49.5670  -18.1030 O.2   214  TYR214     -0.2867
     67  CB       -14.7020   46.9240  -17.6270 C.3   214  TYR214      0.0534
     68  CG       -14.6770   45.4610  -18.0350 C.ar  214  TYR214     -0.0201
     69  CD1      -14.1220   45.0540  -19.2540 C.ar  214  TYR214     -0.0009
     70  CD2      -15.1420   44.4730  -17.1610 C.ar  214  TYR214     -0.0009
     71  CE1      -14.0340   43.7020  -19.5580 C.ar  214  TYR214      0.0417
     72  CE2      -15.1010   43.1390  -17.4940 C.ar  214  TYR214      0.0417
     73  CZ       -14.5300   42.7450  -18.6500 C.ar  214  TYR214      0.1957
     74  OH       -14.4400   41.3670  -18.9170 O.3   214  TYR214     -0.2866
     75  N         -9.8220   33.4690   -9.8580 N.3   242  ASN242     -0.1225
     76  CA       -10.0970   32.7800  -11.0820 C.3   242  ASN242      0.1785
     77  C        -10.8310   33.6280  -12.1370 C.2   242  ASN242      0.2597
     78  O        -11.1120   33.0890  -13.2300 O.2   242  ASN242     -0.2718
     79  CB       -10.8260   31.3990  -10.8520 C.3   242  ASN242      0.1169
     80  CG       -12.2300   31.5450  -10.2940 C.2   242  ASN242      0.2627
     81  OD1      -12.7500   32.6500  -10.0740 O.2   242  ASN242     -0.2716
     82  ND2      -12.8420   30.4020  -10.0010 N.am  242  ASN242     -0.0877
     83  N        -11.1570   34.9150  -11.8580 N.am  243  PHE243     -0.1962
     84  CA       -11.7500   35.7620  -12.9070 C.3   243  PHE243      0.1771
     85  C        -10.7450   36.1870  -13.9270 C.2   243  PHE243      0.2619
     86  O         -9.6490   36.5710  -13.6260 O.2   243  PHE243     -0.2715
     87  CB       -12.3900   37.0390  -12.3130 C.3   243  PHE243      0.0574
     88  CG       -13.7830   36.8500  -11.7970 C.ar  243  PHE243     -0.0200
     89  CD1      -14.5390   37.9860  -11.4350 C.ar  243  PHE243     -0.0042
     90  CD2      -14.3450   35.5970  -11.6010 C.ar  243  PHE243     -0.0042
     91  CE1      -15.8000   37.8570  -10.9640 C.ar  243  PHE243     -0.0003
     92  CE2      -15.6890   35.4870  -11.1800 C.ar  243  PHE243     -0.0003
     93  CZ       -16.3810   36.6500  -10.8450 C.ar  243  PHE243     -0.0000
     94  N        -11.1360   36.1360  -15.1740 N.am  244  VAL244     -0.1963
     95  CA       -10.4080   36.7400  -16.2630 C.3   244  VAL244      0.1727
     96  C         -9.9400   38.1750  -15.9490 C.2   244  VAL244      0.2616
     97  O         -8.7820   38.5930  -16.1680 O.2   244  VAL244     -0.2715
     98  CB       -11.4210   36.6220  -17.5090 C.3   244  VAL244      0.0290
     99  CG1      -11.4470   37.7790  -18.3680 C.3   244  VAL244      0.0023
    100  CG2      -11.0520   35.3530  -18.2970 C.3   244  VAL244      0.0023
    101  N        -10.8200   38.9410  -15.3290 N.am  245  GLU245     -0.1977
    102  CA       -10.5500   40.3540  -14.9960 C.3   245  GLU245      0.1602
    103  C         -9.5590   40.5330  -13.9420 C.2   245  GLU245      0.2287
    104  O         -8.8160   41.5050  -13.9520 O.2   245  GLU245     -0.2864
    105  CB       -11.8570   41.0060  -14.5200 C.3   245  GLU245      0.0415
    106  CG       -12.8840   41.0930  -15.6310 C.3   245  GLU245      0.1163
    107  CD       -13.7920   39.8790  -15.7840 C.2   245  GLU245      0.3649
    108  OE1      -13.6020   38.8880  -15.0660 O.co2 245  GLU245     -0.2457
    109  OE2      -14.7110   39.9190  -16.6460 O.co2 245  GLU245     -0.2457
@<TRIPOS>BOND
     1    43    42    2
     2    42    41    1
     3    13    14    1
     4    14    15    1
     5    14    17    1
     6    16    15    2
     7    41    44    1
     8    41    40    1
     9    44    45    1
    10     1     2    1
    11     3     4    2
    12     3     2    1
    13    17    18    1
    14    50    52   ar
    15    50    47   ar
    16     2     5    1
    17    19    18    1
    18    45    47   ar
    19    45    46   ar
    20    24    23    2
    21    52    53   ar
    22    18    20    1
    23    47    49   ar
    24    21    22    1
    25    32    31    2
    26    31    30    1
    27    23    22    1
    28     5     6    1
    29    46    48   ar
    30    25    22    1
    31    25    26    1
    32    53    51   ar
    33     7     6   ar
    34     7     9   ar
    35    49    48   ar
    36    49    51   ar
    37     6     8   ar
    38     9    11   ar
    39    29    30    1
    40    26    28   ar
    41    26    27   ar
    42    30    33    1
    43     8    10   ar
    44    11    10   ar
    45    11    12    1
    46    33    34    1
    47    71    69   ar
    48    71    73   ar
    49    69    68   ar
    50    74    73    1
    51    73    72   ar
    52    34    36   ar
    53    34    35   ar
    54    99    98    1
    55   100    98    1
    56    66    65    2
    57    68    67    1
    58    68    70   ar
    59    36    38   ar
    60    35    37   ar
    61    67    64    1
    62    98    95    1
    63    72    70   ar
    64    64    65    1
    65    64    63    1
    66    38    39   ar
    67   109   107   ar
    68    37    39   ar
    69    95    96    1
    70    95    94    1
    71    97    96    2
    72    96   101   am
    73   107   106    1
    74   107   108   ar
    75   106   105    1
    76   101   102    1
    77    94    85   am
    78   102   105    1
    79   102   103    1
    80    57    56    2
    81   104   103    2
    82    85    86    2
    83    85    84    1
    84    62    60   ar
    85    56    55    1
    86    58    59    1
    87    58    55    1
    88    59    60    1
    89    60    61   ar
    90    78    77    2
    91    55    54    1
    92    84    87    1
    93    84    83    1
    94    87    88    1
    95    77    83   am
    96    77    76    1
    97    88    90   ar
    98    88    89   ar
    99    90    92   ar
   100    89    91   ar
   101    92    93   ar
   102    76    79    1
   103    76    75    1
   104    91    93   ar
   105    79    80    1
   106    80    81    2
   107    80    82   am
