@<TRIPOS>MOLECULE
tmp/1xngB02.pdb
 203 194 0 0 0
SMALL
GASTEIGER

@<TRIPOS>ATOM
      1  N        -22.9110    2.6220    0.7590 N.3    29  GLY29      -0.1210
      2  CA       -22.6350    2.9170    2.1530 C.3    29  GLY29       0.1956
      3  C        -23.8050    2.5220    3.0380 C.2    29  GLY29       0.2612
      4  O        -24.9350    2.9130    2.7640 O.2    29  GLY29      -0.2717
      5  N        -23.5360    1.7430    4.0850 N.am   30  LEU30      -0.1965
      6  CA       -24.5710    1.2930    5.0240 C.3    30  LEU30       0.1728
      7  C        -24.3800    2.0150    6.3540 C.2    30  LEU30       0.2616
      8  O        -23.4650    1.7180    7.1300 O.2    30  LEU30      -0.2715
      9  CB       -24.4810   -0.2180    5.2410 C.3    30  LEU30       0.0311
     10  CG       -25.6740   -0.8450    5.9640 C.3    30  LEU30       0.0022
     11  CD1      -26.9360   -0.6730    5.1100 C.3    30  LEU30       0.0001
     12  CD2      -25.3950   -2.3170    6.2200 C.3    30  LEU30       0.0001
     13  N        -25.2670    2.9620    6.6160 N.am   31  SER31      -0.1950
     14  CA       -25.1770    3.7820    7.8120 C.3    31  SER31       0.1924
     15  C        -25.9430    3.2700    9.0130 C.2    31  SER31       0.2314
     16  O        -25.6690    3.6810   10.1390 O.2    31  SER31      -0.2863
     17  CB       -25.7030    5.1690    7.4990 C.3    31  SER31       0.2116
     18  OG       -27.0720    5.0680    7.1610 O.3    31  SER31      -0.2180
     19  N        -29.1700    3.5720    8.8770 N.3    33  GLY33      -0.1210
     20  CA       -30.3870    4.3470    8.7000 C.3    33  GLY33       0.1956
     21  C        -31.3260    3.6460    7.7340 C.2    33  GLY33       0.2612
     22  O        -30.9550    2.6430    7.1190 O.2    33  GLY33      -0.2717
     23  N        -32.5320    4.1890    7.5820 N.am   34  LEU34      -0.1965
     24  CA       -33.5600    3.6130    6.7190 C.3    34  LEU34       0.1728
     25  C        -33.2540    3.5850    5.2270 C.2    34  LEU34       0.2616
     26  O        -33.4160    2.5520    4.5780 O.2    34  LEU34      -0.2715
     27  CB       -34.8850    4.3500    6.9300 C.3    34  LEU34       0.0311
     28  CG       -36.1030    3.7320    6.2400 C.3    34  LEU34       0.0022
     29  CD1      -36.4290    2.3910    6.8900 C.3    34  LEU34       0.0001
     30  CD2      -37.2920    4.6720    6.3510 C.3    34  LEU34       0.0001
     31  N        -32.8330    4.7190    4.6770 N.am   35  ASP35      -0.1957
     32  CA       -32.5420    4.7950    3.2520 C.3    35  ASP35       0.1840
     33  C        -31.5340    3.7400    2.7800 C.2    35  ASP35       0.2622
     34  O        -31.8290    2.9730    1.8580 O.2    35  ASP35      -0.2715
     35  CB       -32.0630    6.2090    2.8840 C.3    35  ASP35       0.1450
     36  CG       -33.1740    7.2520    2.9930 C.2    35  ASP35       0.3671
     37  OD1      -34.2480    7.0400    2.3980 O.co2  35  ASP35      -0.2456
     38  OD2      -32.9810    8.2860    3.6670 O.co2  35  ASP35      -0.2456
     39  N        -30.3610    3.6840    3.4070 N.am   36  SER36      -0.1950
     40  CA       -29.3550    2.7050    2.9970 C.3    36  SER36       0.1924
     41  C        -29.7920    1.2650    3.2630 C.2    36  SER36       0.2314
     42  O        -29.4230    0.3570    2.5200 O.2    36  SER36      -0.2863
     43  CB       -27.9900    2.9910    3.6560 C.3    36  SER36       0.2116
     44  OG       -28.0520    3.0270    5.0700 O.3    36  SER36      -0.2180
     45  N        -20.6340   -1.1210    2.6820 N.3    54  LEU54      -0.1231
     46  CA       -19.4520   -0.5130    3.2820 C.3    54  LEU54       0.1693
     47  C        -19.8490    0.3620    4.4640 C.2    54  LEU54       0.2592
     48  O        -20.5150    1.3790    4.2920 O.2    54  LEU54      -0.2718
     49  CB       -18.7040    0.3460    2.2580 C.3    54  LEU54       0.0284
     50  CG       -17.1920    0.1230    2.1270 C.3    54  LEU54       0.0019
     51  CD1      -16.5790    1.2880    1.3460 C.3    54  LEU54       0.0001
     52  CD2      -16.5450    0.0160    3.4990 C.3    54  LEU54       0.0001
     53  N        -19.4420   -0.0410    5.6650 N.am   55  LEU55      -0.1966
     54  CA       -19.7480    0.7210    6.8720 C.3    55  LEU55       0.1728
     55  C        -18.5740    1.6360    7.1840 C.2    55  LEU55       0.2616
     56  O        -17.4470    1.1820    7.3670 O.2    55  LEU55      -0.2715
     57  CB       -20.0210   -0.2180    8.0510 C.3    55  LEU55       0.0311
     58  CG       -21.3330   -1.0120    8.0020 C.3    55  LEU55       0.0022
     59  CD1      -21.2940   -2.0210    6.8670 C.3    55  LEU55       0.0001
     60  CD2      -21.5480   -1.7210    9.3310 C.3    55  LEU55       0.0001
     61  N        -18.8470    2.9330    7.2590 N.am   56  MET56      -0.1964
     62  CA       -17.7930    3.9070    7.5010 C.3    56  MET56       0.1722
     63  C        -18.0860    4.8640    8.6470 C.2    56  MET56       0.2458
     64  O        -18.4160    6.0320    8.4390 O.2    56  MET56      -0.2730
     65  CB       -17.5340    4.6960    6.2130 C.3    56  MET56       0.0427
     66  CG       -17.0400    3.8390    5.0580 C.3    56  MET56       0.0599
     67  SD       -17.1500    4.6490    3.4490 S.3    56  MET56      -0.1393
     68  CE       -18.8650    4.2950    3.0530 C.3    56  MET56       0.0692
     69  N        -17.9490    4.3810    9.8870 N.am   57  PRO57      -0.2727
     70  CA       -18.2100    5.2380   11.0420 C.3    57  PRO57       0.1402
     71  C        -17.1520    6.3300   11.1710 C.2    57  PRO57       0.2269
     72  O        -15.9950    6.1230   10.8040 O.2    57  PRO57      -0.2865
     73  CB       -18.1750    4.2550   12.2060 C.3    57  PRO57       0.0296
     74  CG       -17.1260    3.2750   11.7660 C.3    57  PRO57       0.0237
     75  CD       -17.4760    3.0490   10.3060 C.3    57  PRO57       0.0939
     76  N        -19.8950    9.3600   14.7060 N.3    61  SER61      -0.1217
     77  CA       -20.9680    8.4250   14.3730 C.3    61  SER61       0.1889
     78  C        -21.4750    7.6730   15.5980 C.2    61  SER61       0.2288
     79  O        -20.6900    7.2070   16.4240 O.2    61  SER61      -0.2866
     80  CB       -20.4900    7.4130   13.3280 C.3    61  SER61       0.2089
     81  OG       -20.2330    8.0430   12.0870 O.3    61  SER61      -0.2183
     82  N        -16.6010    9.6070    2.6280 N.3   112  ARG112     -0.1245
     83  CA       -17.3420    8.3800    2.3630 C.3   112  ARG112      0.1563
     84  C        -17.5040    8.1470    0.8680 C.2   112  ARG112      0.2260
     85  O        -17.4180    7.0180    0.3990 O.2   112  ARG112     -0.2867
     86  CB       -18.7130    8.4090    3.0540 C.3   112  ARG112      0.0307
     87  CG       -18.6100    8.5050    4.5740 C.3   112  ARG112      0.0489
     88  CD       -19.8560    7.9940    5.2930 C.3   112  ARG112      0.2205
     89  NE       -19.6270    7.8930    6.7340 N.pl3 112  ARG112     -0.0865
     90  CZ       -19.9170    8.8440    7.6170 C.cat 112  ARG112      0.5346
     91  NH1      -20.4730    9.9850    7.2240 N.pl3 112  ARG112      0.1354
     92  NH2      -19.6240    8.6630    8.9000 N.pl3 112  ARG112      0.1354
     93  N        -16.0440    4.8690   -1.0670 N.3   116  LEU116     -0.1245
     94  CA       -16.9720    4.0280   -1.8070 C.3   116  LEU116      0.1561
     95  C        -16.4740    3.8980   -3.2500 C.2   116  LEU116      0.2260
     96  O        -16.5300    2.8190   -3.8440 O.2   116  LEU116     -0.2867
     97  CB       -18.3790    4.6320   -1.7980 C.3   116  LEU116      0.0270
     98  CG       -19.2060    4.3290   -0.5460 C.3   116  LEU116      0.0019
     99  CD1      -20.4750    5.1780   -0.5180 C.3   116  LEU116      0.0001
    100  CD2      -19.5620    2.8530   -0.5370 C.3   116  LEU116      0.0001
    101  N        -28.3230    6.3850   -2.3370 N.3   130  THR130     -0.1218
    102  CA       -29.4460    6.1750   -1.4320 C.3   130  THR130      0.1862
    103  C        -30.2360    7.4370   -1.0980 C.2   130  THR130      0.2287
    104  O        -31.0190    7.4370   -0.1470 O.2   130  THR130     -0.2866
    105  CB       -28.9570    5.6090   -0.1010 C.3   130  THR130      0.1770
    106  OG1      -28.2170    6.6240    0.5890 O.3   130  THR130     -0.2211
    107  CG2      -28.0550    4.4070   -0.3330 C.3   130  THR130      0.0375
    108  N        -35.0820   14.3290    0.0900 N.3   135  GLU135     -0.1245
    109  CA       -33.7440   14.8750    0.2670 C.3   135  GLU135      0.1567
    110  C        -33.2670   15.5520   -1.0260 C.2   135  GLU135      0.2260
    111  O        -32.6700   16.6300   -0.9860 O.2   135  GLU135     -0.2867
    112  CB       -32.7710   13.7550    0.6720 C.3   135  GLU135      0.0388
    113  CG       -33.1560   13.0380    1.9710 C.3   135  GLU135      0.1160
    114  CD       -32.3050   11.8110    2.2620 C.2   135  GLU135      0.3649
    115  OE1      -31.7740   11.2150    1.3020 O.co2 135  GLU135     -0.2457
    116  OE2      -32.1870   11.4300    3.4480 O.co2 135  GLU135     -0.2457
    117  N        -31.0600   18.4840    0.7150 N.3   140  TYR140     -0.1241
    118  CA       -30.5840   18.0490    2.0260 C.3   140  TYR140      0.1605
    119  C        -29.6430   16.8680    1.8230 C.2   140  TYR140      0.2264
    120  O        -30.0340   15.7060    1.9000 O.2   140  TYR140     -0.2867
    121  CB       -31.7620   17.6650    2.9350 C.3   140  TYR140      0.0534
    122  CG       -31.3720   17.5290    4.3960 C.ar  140  TYR140     -0.0201
    123  CD1      -30.8440   18.6110    5.1050 C.ar  140  TYR140     -0.0009
    124  CD2      -31.5050   16.3120    5.0610 C.ar  140  TYR140     -0.0009
    125  CE1      -30.4560   18.4770    6.4460 C.ar  140  TYR140      0.0417
    126  CE2      -31.1200   16.1690    6.3950 C.ar  140  TYR140      0.0417
    127  CZ       -30.5960   17.2490    7.0780 C.ar  140  TYR140      0.1957
    128  OH       -30.2060   17.0800    8.3840 O.3   140  TYR140     -0.2866
    129  N        -22.8120   12.3480   -0.2130 N.3   146  ASP146     -0.1239
    130  CA       -23.7640   11.2480   -0.2350 C.3   146  ASP146      0.1674
    131  C        -24.5990   11.2980   -1.5180 C.2   146  ASP146      0.2266
    132  O        -25.1860   10.2970   -1.9270 O.2   146  ASP146     -0.2867
    133  CB       -24.6590   11.2420    1.0250 C.3   146  ASP146      0.1410
    134  CG       -25.3720   12.5620    1.2660 C.2   146  ASP146      0.3668
    135  OD1      -24.7020   13.6150    1.2940 O.co2 146  ASP146     -0.2456
    136  OD2      -26.6070   12.5380    1.4540 O.co2 146  ASP146     -0.2456
    137  N        -39.4660   10.2650    1.1470 N.3   159  LYS159     -0.1245
    138  CA       -39.0920    9.5800    2.3740 C.3   159  LYS159      0.1561
    139  C        -40.2530    8.7690    2.9360 C.2   159  LYS159      0.2260
    140  O        -40.0750    7.6210    3.3390 O.2   159  LYS159     -0.2867
    141  CB       -38.6070   10.5930    3.4140 C.3   159  LYS159      0.0271
    142  CG       -38.0630    9.9620    4.6930 C.3   159  LYS159      0.0035
    143  CD       -37.0640    8.8620    4.3560 C.3   159  LYS159      0.0206
    144  CE       -36.3680    8.3260    5.5880 C.3   159  LYS159      0.1093
    145  NZ       -35.0620    9.0090    5.8110 N.3   159  LYS159     -0.1314
    146  N        -36.4670    4.4030   13.5360 N.3   178  LYS178     -0.1231
    147  CA       -35.3600    5.2930   13.8640 C.3   178  LYS178      0.1678
    148  C        -35.5600    6.6630   13.2140 C.2   178  LYS178      0.2434
    149  O        -35.8400    6.7580   12.0210 O.2   178  LYS178     -0.2733
    150  CB       -34.0350    4.6810   13.3890 C.3   178  LYS178      0.0284
    151  CG       -32.8110    5.5270   13.7020 C.3   178  LYS178      0.0035
    152  CD       -31.5120    4.8730   13.2230 C.3   178  LYS178      0.0206
    153  CE       -31.1970    3.5920   13.9910 C.3   178  LYS178      0.1093
    154  NZ       -29.9240    2.9620   13.5310 N.3   178  LYS178     -0.1314
    155  N        -35.4320    7.7450   13.9970 N.am  179  PRO179     -0.2718
    156  CA       -35.6090    9.0840   13.4300 C.3   179  PRO179      0.1520
    157  C        -34.5180    9.4110   12.4110 C.2   179  PRO179      0.2440
    158  O        -33.3340    9.1600   12.6470 O.2   179  PRO179     -0.2731
    159  CB       -35.5670    9.9930   14.6590 C.3   179  PRO179      0.0310
    160  CG       -34.7230    9.2240   15.6330 C.3   179  PRO179      0.0237
    161  CD       -35.2150    7.8120   15.4520 C.3   179  PRO179      0.0939
    162  N        -34.9110    9.9550   11.2520 N.am  180  PRO180     -0.2716
    163  CA       -33.9460   10.3080   10.2070 C.3   180  PRO180      0.1536
    164  C        -32.8520   11.2250   10.7330 C.2   180  PRO180      0.2599
    165  O        -33.1300   12.1880   11.4450 O.2   180  PRO180     -0.2715
    166  CB       -34.8170   10.9880    9.1580 C.3   180  PRO180      0.0310
    167  CG       -36.1010   10.2140    9.2620 C.3   180  PRO180      0.0237
    168  CD       -36.2940   10.1200   10.7660 C.3   180  PRO180      0.0939
    169  N        -31.6040   10.9220   10.3810 N.am  181  SER181     -0.1936
    170  CA       -30.4740   11.7320   10.8200 C.3   181  SER181      0.2055
    171  C        -29.2350   11.5000    9.9710 C.2   181  SER181      0.2643
    172  O        -28.8580   10.3620    9.7240 O.2   181  SER181     -0.2714
    173  CB       -30.1250   11.4260   12.2780 C.3   181  SER181      0.2130
    174  OG       -28.8930   12.0300   12.6410 O.3   181  SER181     -0.2179
    175  N        -28.6020   12.5820    9.5390 N.am  182  ALA182     -0.1963
    176  CA       -27.3850   12.4850    8.7420 C.3   182  ALA182      0.1728
    177  C        -26.3130   11.8240    9.6070 C.2   182  ALA182      0.2616
    178  O        -25.3820   11.1910    9.1000 O.2   182  ALA182     -0.2715
    179  CB       -26.9300   13.8720    8.3270 C.3   182  ALA182      0.0334
    180  N        -26.4610   11.9810   10.9190 N.am  183  ASP183     -0.1957
    181  CA       -25.5210   11.4290   11.8860 C.3   183  ASP183      0.1840
    182  C        -24.1010   11.9240   11.5950 C.2   183  ASP183      0.2621
    183  O        -23.1290   11.1670   11.6680 O.2   183  ASP183     -0.2715
    184  CB       -25.5850    9.8950   11.8690 C.3   183  ASP183      0.1450
    185  CG       -24.9640    9.2700   13.1070 C.2   183  ASP183      0.3671
    186  OD1      -25.1140    9.8400   14.2080 O.co2 183  ASP183     -0.2456
    187  OD2      -24.3360    8.1990   12.9840 O.co2 183  ASP183     -0.2456
    188  N        -23.9940   13.2100   11.2660 N.am  184  LEU184     -0.1977
    189  CA       -22.7060   13.8330   10.9770 C.3   184  LEU184      0.1596
    190  C        -22.1880   14.5510   12.2250 C.2   184  LEU184      0.2287
    191  O        -21.0670   15.0640   12.2420 O.2   184  LEU184     -0.2864
    192  CB       -22.8390   14.8090    9.8050 C.3   184  LEU184      0.0297
    193  CG       -23.2800   14.1430    8.4960 C.3   184  LEU184      0.0022
    194  CD1      -23.5210   15.2060    7.4350 C.3   184  LEU184      0.0001
    195  CD2      -22.2180   13.1460    8.0340 C.3   184  LEU184      0.0001
    196  N        -32.9760   15.0580   11.0430 N.3   190  ASP190     -0.1239
    197  CA       -33.5410   15.7410    9.8910 C.3   190  ASP190      0.1674
    198  C        -34.5830   16.7700   10.3220 C.2   190  ASP190      0.2266
    199  O        -34.6420   17.8770    9.7780 O.2   190  ASP190     -0.2867
    200  CB       -34.1870   14.7160    8.9560 C.3   190  ASP190      0.1410
    201  CG       -33.1640   13.8980    8.1870 C.2   190  ASP190      0.3668
    202  OD1      -32.0930   13.5910    8.7540 O.co2 190  ASP190     -0.2456
    203  OD2      -33.4400   13.5550    7.0180 O.co2 190  ASP190     -0.2456
@<TRIPOS>BOND
     1    96    95    2
     2    95    94    1
     3   101   102    1
     4   132   131    2
     5    94    97    1
     6    94    93    1
     7    97    98    1
     8   131   130    1
     9   102   103    1
    10   102   105    1
    11   103   104    2
    12   110   111    2
    13   110   109    1
    14    98   100    1
    15    98    99    1
    16   107   105    1
    17   130   129    1
    18   130   133    1
    19   105   106    1
    20   108   109    1
    21   109   112    1
    22    85    84    2
    23   112   113    1
    24   117   118    1
    25     1     2    1
    26    84    83    1
    27   133   134    1
    28   137   138    1
    29   134   135   ar
    30   134   136   ar
    31   115   114   ar
    32    51    50    1
    33   119   120    2
    34   119   118    1
    35    34    33    2
    36   113   114    1
    37   118   121    1
    38    50    49    1
    39    50    52    1
    40     2     3    1
    41    49    46    1
    42   114   116   ar
    43    83    82    1
    44    83    86    1
    45   138   139    1
    46   138   141    1
    47    37    36   ar
    48    42    41    2
    49    45    46    1
    50     4     3    2
    51    33    32    1
    52    33    39   am
    53    35    36    1
    54    35    32    1
    55   121   122    1
    56   139   140    2
    57    36    38   ar
    58    40    41    1
    59    40    39    1
    60    40    43    1
    61     3     5   am
    62    68    67    1
    63    86    87    1
    64    32    31    1
    65    46    47    1
    66   141   142    1
    67    67    66    1
    68    43    44    1
    69     5     6    1
    70    48    47    2
    71   143   142    1
    72   143   144    1
    73   122   124   ar
    74   122   123   ar
    75    47    53   am
    76    87    88    1
    77    26    25    2
    78    31    25   am
    79     6     9    1
    80     6     7    1
    81    66    65    1
    82   124   126   ar
    83   123   125   ar
    84    11    10    1
    85    25    24    1
    86     9    10    1
    87    88    89    1
    88   144   145    1
    89    53    54    1
    90    10    12    1
    91    65    62    1
    92    28    30    1
    93    28    29    1
    94    28    27    1
    95     7    13   am
    96     7     8    2
    97   126   127   ar
    98   125   127   ar
    99    13    14    1
   100    24    27    1
   101    24    23    1
   102    89    90    2
   103    59    58    1
   104    54    55    1
   105    54    57    1
   106   203   201   ar
   107   127   128    1
   108    22    21    2
   109    18    17    1
   110    55    61   am
   111    55    56    2
   112    91    90    1
   113    61    62    1
   114   194   193    1
   115    17    14    1
   116    62    63    1
   117    23    21   am
   118    90    92    1
   119    21    20    1
   120    14    15    1
   121    58    57    1
   122    58    60    1
   123   195   193    1
   124   201   202   ar
   125   201   200    1
   126   179   176    1
   127    64    63    2
   128   193   192    1
   129    63    69   am
   130    20    19    1
   131   176   175    1
   132   176   177    1
   133   200   197    1
   134    15    16    2
   135   178   177    2
   136   166   167    1
   137   166   163    1
   138   167   168    1
   139   175   171   am
   140   177   180   am
   141   172   171    2
   142   199   198    2
   143   192   189    1
   144    69    75    1
   145    69    70    1
   146   197   198    1
   147   197   196    1
   148   171   170    1
   149   163   164    1
   150   163   162    1
   151    75    74    1
   152   169   164   am
   153   169   170    1
   154   164   165    2
   155   168   162    1
   156    72    71    2
   157   170   173    1
   158   180   181    1
   159   189   188    1
   160   189   190    1
   161    70    71    1
   162    70    73    1
   163   162   157   am
   164   188   182   am
   165   182   183    2
   166   182   181    1
   167    74    73    1
   168   184   181    1
   169   184   185    1
   170   149   148    2
   171    81    80    1
   172   190   191    2
   173   173   174    1
   174   157   158    2
   175   157   156    1
   176   187   185   ar
   177   185   186   ar
   178   148   147    1
   179   148   155   am
   180   152   151    1
   181   152   153    1
   182    80    77    1
   183   150   151    1
   184   150   147    1
   185   156   155    1
   186   156   159    1
   187   154   153    1
   188   146   147    1
   189   155   161    1
   190    77    76    1
   191    77    78    1
   192   159   160    1
   193   161   160    1
   194    78    79    2
