@<TRIPOS>MOLECULE
tmp/1xngB01.pdb
 186 175 0 0 0
SMALL
GASTEIGER

@<TRIPOS>ATOM
      1  N        -21.7880   21.9790    9.8360 N.3   102  THR102     -0.1218
      2  CA       -22.0810   21.6610    8.4440 C.3   102  THR102      0.1862
      3  C        -20.7910   21.3840    7.6710 C.2   102  THR102      0.2287
      4  O        -20.7160   20.4170    6.9130 O.2   102  THR102     -0.2866
      5  CB       -22.8520   22.8040    7.7430 C.3   102  THR102      0.1770
      6  OG1      -24.1170   22.9860    8.3880 O.3   102  THR102     -0.2211
      7  CG2      -23.1000   22.4640    6.2720 C.3   102  THR102      0.0375
      8  N        -19.8980   17.8450    5.9900 N.3   106  ASN106     -0.1240
      9  CA       -19.7010   17.7620    4.5480 C.3   106  ASN106      0.1653
     10  C        -18.3980   17.0520    4.2330 C.2   106  ASN106      0.2266
     11  O        -18.3210   16.2840    3.2740 O.2   106  ASN106     -0.2867
     12  CB       -19.6910   19.1510    3.9150 C.3   106  ASN106      0.1155
     13  CG       -21.0740   19.7580    3.8270 C.2   106  ASN106      0.2627
     14  OD1      -22.0780   19.0630    3.9930 O.2   106  ASN106     -0.2716
     15  ND2      -21.1350   21.0570    3.5490 N.am  106  ASN106     -0.0877
     16  N        -19.0000   13.3000    4.6680 N.3   109  ALA109     -0.1231
     17  CA       -19.8040   12.7440    3.5840 C.3   109  ALA109      0.1694
     18  C        -18.9570   12.5800    2.3270 C.2   109  ALA109      0.2591
     19  O        -19.1500   11.6360    1.5600 O.2   109  ALA109     -0.2718
     20  CB       -20.9980   13.6450    3.2960 C.3   109  ALA109      0.0304
     21  N        -18.0220   13.4980    2.1130 N.am  110  ARG110     -0.1980
     22  CA       -17.1650   13.4170    0.9380 C.3   110  ARG110      0.1597
     23  C        -16.0740   12.3630    1.0940 C.2   110  ARG110      0.2287
     24  O        -15.6240   11.7850    0.1050 O.2   110  ARG110     -0.2864
     25  CB       -16.5810   14.7920    0.6150 C.3   110  ARG110      0.0334
     26  CG       -17.6160   15.6900   -0.0560 C.3   110  ARG110      0.0492
     27  CD       -17.2330   17.1500   -0.0850 C.3   110  ARG110      0.2205
     28  NE       -18.2800   17.9260   -0.7490 N.pl3 110  ARG110     -0.0865
     29  CZ       -18.7120   19.1170   -0.3420 C.cat 110  ARG110      0.5346
     30  NH1      -18.1960   19.6820    0.7400 N.pl3 110  ARG110      0.1354
     31  NH2      -19.6720   19.7440   -1.0150 N.pl3 110  ARG110      0.1354
     32  N        -35.0820   14.3290    0.0900 N.3   135  GLU135     -0.1245
     33  CA       -33.7440   14.8750    0.2670 C.3   135  GLU135      0.1567
     34  C        -33.2670   15.5520   -1.0260 C.2   135  GLU135      0.2260
     35  O        -32.6700   16.6300   -0.9860 O.2   135  GLU135     -0.2867
     36  CB       -32.7710   13.7550    0.6720 C.3   135  GLU135      0.0388
     37  CG       -33.1560   13.0380    1.9710 C.3   135  GLU135      0.1160
     38  CD       -32.3050   11.8110    2.2620 C.2   135  GLU135      0.3649
     39  OE1      -31.7740   11.2150    1.3020 O.co2 135  GLU135     -0.2457
     40  OE2      -32.1870   11.4300    3.4480 O.co2 135  GLU135     -0.2457
     41  N        -32.3730   19.4520   -1.3640 N.3   139  GLY139     -0.1210
     42  CA       -30.9480   19.7110   -1.3800 C.3   139  GLY139      0.1956
     43  C        -30.3500   19.3250   -0.0350 C.2   139  GLY139      0.2612
     44  O        -29.2610   19.7810    0.3220 O.2   139  GLY139     -0.2717
     45  N        -31.0600   18.4840    0.7150 N.am  140  TYR140     -0.1962
     46  CA       -30.5840   18.0490    2.0260 C.3   140  TYR140      0.1771
     47  C        -29.6430   16.8680    1.8230 C.2   140  TYR140      0.2620
     48  O        -30.0340   15.7060    1.9000 O.2   140  TYR140     -0.2715
     49  CB       -31.7620   17.6650    2.9350 C.3   140  TYR140      0.0574
     50  CG       -31.3720   17.5290    4.3960 C.ar  140  TYR140     -0.0198
     51  CD1      -30.8440   18.6110    5.1050 C.ar  140  TYR140     -0.0009
     52  CD2      -31.5050   16.3120    5.0610 C.ar  140  TYR140     -0.0009
     53  CE1      -30.4560   18.4770    6.4460 C.ar  140  TYR140      0.0417
     54  CE2      -31.1200   16.1690    6.3950 C.ar  140  TYR140      0.0417
     55  CZ       -30.5960   17.2490    7.0780 C.ar  140  TYR140      0.1957
     56  OH       -30.2060   17.0800    8.3840 O.3   140  TYR140     -0.2866
     57  N        -28.3930   17.2080    1.5320 N.am  141  GLY141     -0.1940
     58  CA       -27.3640   16.2200    1.2820 C.3   141  GLY141      0.2014
     59  C        -26.1440   16.9980    0.8350 C.2   141  GLY141      0.2640
     60  O        -26.2580   18.1640    0.4590 O.2   141  GLY141     -0.2714
     61  N        -24.9770   16.3640    0.8890 N.am  142  THR142     -0.1936
     62  CA       -23.7220   17.0030    0.5000 C.3   142  THR142      0.2028
     63  C        -23.4320   16.7600   -0.9810 C.2   142  THR142      0.2642
     64  O        -23.3670   15.6140   -1.4140 O.2   142  THR142     -0.2714
     65  CB       -22.5440   16.4300    1.3280 C.3   142  THR142      0.1808
     66  OG1      -22.7800   16.6530    2.7240 O.3   142  THR142     -0.2208
     67  CG2      -21.2270   17.0800    0.9230 C.3   142  THR142      0.0379
     68  N        -23.2560   17.8330   -1.7520 N.am  143  LEU143     -0.1977
     69  CA       -22.9600   17.7000   -3.1780 C.3   143  LEU143      0.1596
     70  C        -21.5990   17.0120   -3.2930 C.2   143  LEU143      0.2287
     71  O        -20.6460   17.4070   -2.6210 O.2   143  LEU143     -0.2864
     72  CB       -22.9290   19.0830   -3.8530 C.3   143  LEU143      0.0297
     73  CG       -22.7050   19.1500   -5.3730 C.3   143  LEU143      0.0022
     74  CD1      -23.8430   18.4790   -6.1180 C.3   143  LEU143      0.0001
     75  CD2      -22.5800   20.5930   -5.8060 C.3   143  LEU143      0.0001
     76  N        -22.8120   12.3480   -0.2130 N.3   146  ASP146     -0.1239
     77  CA       -23.7640   11.2480   -0.2350 C.3   146  ASP146      0.1674
     78  C        -24.5990   11.2980   -1.5180 C.2   146  ASP146      0.2266
     79  O        -25.1860   10.2970   -1.9270 O.2   146  ASP146     -0.2867
     80  CB       -24.6590   11.2420    1.0250 C.3   146  ASP146      0.1410
     81  CG       -25.3720   12.5620    1.2660 C.2   146  ASP146      0.3668
     82  OD1      -24.7020   13.6150    1.2940 O.co2 146  ASP146     -0.2456
     83  OD2      -26.6070   12.5380    1.4540 O.co2 146  ASP146     -0.2456
     84  N        -31.6040   10.9220   10.3810 N.3   181  SER181     -0.1202
     85  CA       -30.4740   11.7320   10.8200 C.3   181  SER181      0.2020
     86  C        -29.2350   11.5000    9.9710 C.2   181  SER181      0.2618
     87  O        -28.8580   10.3620    9.7240 O.2   181  SER181     -0.2717
     88  CB       -30.1250   11.4260   12.2780 C.3   181  SER181      0.2103
     89  OG       -28.8930   12.0300   12.6410 O.3   181  SER181     -0.2182
     90  N        -28.6020   12.5820    9.5390 N.am  182  ALA182     -0.1979
     91  CA       -27.3850   12.4850    8.7420 C.3   182  ALA182      0.1597
     92  C        -26.3130   11.8240    9.6070 C.2   182  ALA182      0.2287
     93  O        -25.3820   11.1910    9.1000 O.2   182  ALA182     -0.2864
     94  CB       -26.9300   13.8720    8.3270 C.3   182  ALA182      0.0319
     95  N        -23.9940   13.2100   11.2660 N.3   184  LEU184     -0.1231
     96  CA       -22.7060   13.8330   10.9770 C.3   184  LEU184      0.1693
     97  C        -22.1880   14.5510   12.2250 C.2   184  LEU184      0.2592
     98  O        -21.0670   15.0640   12.2420 O.2   184  LEU184     -0.2718
     99  CB       -22.8390   14.8090    9.8050 C.3   184  LEU184      0.0284
    100  CG       -23.2800   14.1430    8.4960 C.3   184  LEU184      0.0019
    101  CD1      -23.5210   15.2060    7.4350 C.3   184  LEU184      0.0001
    102  CD2      -22.2180   13.1460    8.0340 C.3   184  LEU184      0.0001
    103  N        -23.0250   14.5980   13.2600 N.am  185  PHE185     -0.1976
    104  CA       -22.6550   15.1980   14.5420 C.3   185  PHE185      0.1639
    105  C        -23.6280   14.7550   15.6300 C.2   185  PHE185      0.2290
    106  O        -24.7910   14.4660   15.3530 O.2   185  PHE185     -0.2864
    107  CB       -22.5900   16.7330   14.4550 C.3   185  PHE185      0.0560
    108  CG       -23.9180   17.4040   14.2330 C.ar  185  PHE185     -0.0200
    109  CD1      -24.8020   17.6020   15.2870 C.ar  185  PHE185     -0.0042
    110  CD2      -24.2730   17.8610   12.9680 C.ar  185  PHE185     -0.0042
    111  CE1      -26.0180   18.2520   15.0850 C.ar  185  PHE185     -0.0003
    112  CE2      -25.4870   18.5120   12.7560 C.ar  185  PHE185     -0.0003
    113  CZ       -26.3610   18.7070   13.8170 C.ar  185  PHE185     -0.0000
    114  N        -27.7540   15.2090   15.8450 N.3   188  GLN188     -0.1245
    115  CA       -28.3750   15.6540   14.6020 C.3   188  GLN188      0.1566
    116  C        -29.6250   14.8570   14.2470 C.2   188  GLN188      0.2260
    117  O        -29.7320   13.6710   14.5560 O.2   188  GLN188     -0.2867
    118  CB       -27.3870   15.5550   13.4300 C.3   188  GLN188      0.0367
    119  CG       -27.9400   16.1430   12.1230 C.3   188  GLN188      0.0905
    120  CD       -26.9360   16.1420   10.9760 C.2   188  GLN188      0.2608
    121  OE1      -27.0820   16.8880   10.0030 O.2   188  GLN188     -0.2717
    122  NE2      -25.9210   15.2960   11.0790 N.am  188  GLN188     -0.0878
    123  N        -32.9760   15.0580   11.0430 N.3   190  ASP190     -0.1239
    124  CA       -33.5410   15.7410    9.8910 C.3   190  ASP190      0.1674
    125  C        -34.5830   16.7700   10.3220 C.2   190  ASP190      0.2266
    126  O        -34.6420   17.8770    9.7780 O.2   190  ASP190     -0.2867
    127  CB       -34.1870   14.7160    8.9560 C.3   190  ASP190      0.1410
    128  CG       -33.1640   13.8980    8.1870 C.2   190  ASP190      0.3668
    129  OD1      -32.0930   13.5910    8.7540 O.co2 190  ASP190     -0.2456
    130  OD2      -33.4400   13.5550    7.0180 O.co2 190  ASP190     -0.2456
    131  N        -32.9320   19.9330   11.7940 N.3   193  ASP193     -0.1239
    132  CA       -32.2520   20.7060   10.7680 C.3   193  ASP193      0.1674
    133  C        -33.2330   21.3650    9.8140 C.2   193  ASP193      0.2266
    134  O        -33.0870   22.5390    9.4850 O.2   193  ASP193     -0.2867
    135  CB       -31.3060   19.8200    9.9570 C.3   193  ASP193      0.1410
    136  CG       -29.9300   19.7020   10.5770 C.2   193  ASP193      0.3668
    137  OD1      -29.0790   19.0250    9.9650 O.co2 193  ASP193     -0.2456
    138  OD2      -29.6950   20.2810   11.6600 O.co2 193  ASP193     -0.2456
    139  N        -35.4780   26.1180    0.2000 N.3   238  ARG238     -0.1245
    140  CA       -34.5610   24.9870    0.1010 C.3   238  ARG238      0.1563
    141  C        -34.5320   24.4480   -1.3190 C.2   238  ARG238      0.2260
    142  O        -33.4690   24.1820   -1.8690 O.2   238  ARG238     -0.2867
    143  CB       -34.9660   23.8640    1.0580 C.3   238  ARG238      0.0307
    144  CG       -34.8370   24.2230    2.5230 C.3   238  ARG238      0.0489
    145  CD       -35.1460   23.0320    3.4150 C.3   238  ARG238      0.2205
    146  NE       -35.0480   23.3990    4.8240 N.pl3 238  ARG238     -0.0865
    147  CZ       -33.9030   23.6060    5.4690 C.cat 238  ARG238      0.5346
    148  NH1      -32.7440   23.4680    4.8390 N.pl3 238  ARG238      0.1354
    149  NH2      -33.9190   23.9860    6.7400 N.pl3 238  ARG238      0.1354
    150  N        -32.9370   27.2210   -3.7680 N.3   241  LYS241     -0.1231
    151  CA       -31.5450   27.4600   -3.4270 C.3   241  LYS241      0.1693
    152  C        -30.6320   26.2770   -3.7530 C.2   241  LYS241      0.2592
    153  O        -29.4670   26.4650   -4.1130 O.2   241  LYS241     -0.2718
    154  CB       -31.4360   27.7880   -1.9360 C.3   241  LYS241      0.0285
    155  CG       -30.0270   28.0230   -1.4450 C.3   241  LYS241      0.0035
    156  CD       -30.0140   28.3110    0.0440 C.3   241  LYS241      0.0206
    157  CE       -28.5920   28.3190    0.5750 C.3   241  LYS241      0.1093
    158  NZ       -28.5400   28.6170    2.0290 N.3   241  LYS241     -0.1314
    159  N        -31.1580   25.0640   -3.6530 N.am  242  ASN242     -0.1974
    160  CA       -30.3290   23.8900   -3.8900 C.3   242  ASN242      0.1688
    161  C        -30.5940   23.1060   -5.1580 C.2   242  ASN242      0.2292
    162  O        -30.1230   21.9800   -5.3040 O.2   242  ASN242     -0.2864
    163  CB       -30.4220   22.9530   -2.6880 C.3   242  ASN242      0.1181
    164  CG       -29.9390   23.6090   -1.4190 C.2   242  ASN242      0.2629
    165  OD1      -28.7650   23.9530   -1.3000 O.2   242  ASN242     -0.2716
    166  ND2      -30.8440   23.8040   -0.4680 N.am  242  ASN242     -0.0877
    167  N        -29.3360   23.5030   -7.9090 N.3   244  PHE244     -0.1227
    168  CA       -28.0640   23.2760   -8.5820 C.3   244  PHE244      0.1736
    169  C        -27.4630   21.8970   -8.2910 C.2   244  PHE244      0.2595
    170  O        -26.7240   21.3700   -9.1190 O.2   244  PHE244     -0.2718
    171  CB       -27.0540   24.3600   -8.1880 C.3   244  PHE244      0.0547
    172  CG       -26.5760   24.2490   -6.7730 C.ar  244  PHE244     -0.0202
    173  CD1      -25.4480   23.4960   -6.4590 C.ar  244  PHE244     -0.0042
    174  CD2      -27.2850   24.8540   -5.7450 C.ar  244  PHE244     -0.0042
    175  CE1      -25.0370   23.3450   -5.1430 C.ar  244  PHE244     -0.0003
    176  CE2      -26.8840   24.7100   -4.4240 C.ar  244  PHE244     -0.0003
    177  CZ       -25.7570   23.9530   -4.1220 C.ar  244  PHE244     -0.0000
    178  N        -27.7770   21.3090   -7.1350 N.am  245  LYS245     -0.1980
    179  CA       -27.2160   20.0020   -6.7710 C.3   245  LYS245      0.1596
    180  C        -27.6950   18.8690   -7.6700 C.2   245  LYS245      0.2287
    181  O        -27.0760   17.8060   -7.7380 O.2   245  LYS245     -0.2864
    182  CB       -27.5490   19.6510   -5.3130 C.3   245  LYS245      0.0298
    183  CG       -26.9920   20.6200   -4.2950 C.3   245  LYS245      0.0038
    184  CD       -27.2130   20.1320   -2.8730 C.3   245  LYS245      0.0206
    185  CE       -26.5910   21.1090   -1.8850 C.3   245  LYS245      0.1093
    186  NZ       -26.7720   20.6520   -0.4880 N.3   245  LYS245     -0.1314
@<TRIPOS>BOND
     1   170   169    2
     2   168   169    1
     3   168   171    1
     4   168   167    1
     5   169   178   am
     6   171   172    1
     7   181   180    2
     8   180   179    1
     9   178   179    1
    10   172   173   ar
    11   172   174   ar
    12   179   182    1
    13   173   175   ar
    14    74    73    1
    15    75    73    1
    16   174   176   ar
    17    73    72    1
    18   182   183    1
    19   162   161    2
    20   161   160    1
    21   175   177   ar
    22   176   177   ar
    23   183   184    1
    24   153   152    2
    25   160   159    1
    26   160   163    1
    27    72    69    1
    28   150   151    1
    29   152   159   am
    30   152   151    1
    31   151   154    1
    32    70    69    1
    33    70    71    2
    34    69    68    1
    35   184   185    1
    36   163   164    1
    37   154   155    1
    38    79    78    2
    39   185   186    1
    40   142   141    2
    41    68    63   am
    42    78    77    1
    43   155   156    1
    44   164   165    2
    45   164   166   am
    46    64    63    2
    47    42    41    1
    48    42    43    1
    49   141   140    1
    50    34    35    2
    51    34    33    1
    52    31    29    1
    53    63    62    1
    54    28    29    2
    55    28    27    1
    56    29    30    1
    57    77    76    1
    58    77    80    1
    59    27    26    1
    60    26    25    1
    61    43    44    2
    62    43    45   am
    63   156   157    1
    64    32    33    1
    65   140   139    1
    66   140   143    1
    67    24    23    2
    68    33    36    1
    69    60    59    2
    70    62    61    1
    71    62    65    1
    72   157   158    1
    73    25    22    1
    74    36    37    1
    75    45    46    1
    76    59    61   am
    77    59    58    1
    78    67    65    1
    79    22    23    1
    80    22    21    1
    81    80    81    1
    82   143   144    1
    83    81    82   ar
    84    81    83   ar
    85    58    57    1
    86    39    38   ar
    87    65    66    1
    88    57    47   am
    89    19    18    2
    90    47    48    2
    91    47    46    1
    92    37    38    1
    93    46    49    1
    94    21    18   am
    95    38    40   ar
    96    18    17    1
    97   144   145    1
    98    49    50    1
    99    11    10    2
   100    20    17    1
   101   145   146    1
   102    15    13   am
   103    17    16    1
   104    13    12    1
   105    13    14    2
   106    12     9    1
   107    10     9    1
   108    50    52   ar
   109    50    51   ar
   110     9     8    1
   111   146   147    2
   112   148   147    1
   113    52    54   ar
   114    51    53   ar
   115   147   149    1
   116     7     5    1
   117    54    55   ar
   118    53    55   ar
   119     4     3    2
   120   130   128   ar
   121    55    56    1
   122   101   100    1
   123     3     2    1
   124     5     6    1
   125     5     2    1
   126   102   100    1
   127   128   129   ar
   128   128   127    1
   129    94    91    1
   130     2     1    1
   131   100    99    1
   132    91    90    1
   133    91    92    1
   134   127   124    1
   135    93    92    2
   136   134   133    2
   137    90    86   am
   138    87    86    2
   139   126   125    2
   140    99    96    1
   141   133   132    1
   142   124   125    1
   143   124   123    1
   144   135   136    1
   145   135   132    1
   146   137   136   ar
   147    86    85    1
   148   121   120    2
   149    84    85    1
   150   136   138   ar
   151   132   131    1
   152    85    88    1
   153   120   122   am
   154   120   119    1
   155    96    95    1
   156    96    97    1
   157   119   118    1
   158    97    98    2
   159    97   103   am
   160    88    89    1
   161   112   110   ar
   162   112   113   ar
   163   110   108   ar
   164   103   104    1
   165   118   115    1
   166   113   111   ar
   167   108   107    1
   168   108   109   ar
   169   116   117    2
   170   116   115    1
   171   107   104    1
   172   104   105    1
   173   115   114    1
   174   111   109   ar
   175   106   105    2
