@<TRIPOS>MOLECULE
tmp/1xnjB00.pdb
 201 198 0 0 0
SMALL
GASTEIGER

@<TRIPOS>ATOM
      1  N         42.6290   49.4850   24.7290 N.3   356  PHE356     -0.1227
      2  CA        42.1080   49.6140   23.3720 C.3   356  PHE356      0.1736
      3  C         42.6960   48.5100   22.5050 C.2   356  PHE356      0.2595
      4  O         43.7840   48.6670   22.0420 O.2   356  PHE356     -0.2718
      5  CB        42.4460   50.9230   22.6900 C.3   356  PHE356      0.0547
      6  CG        41.6200   51.2220   21.5140 C.ar  356  PHE356     -0.0202
      7  CD1       40.3520   51.5490   21.6350 C.ar  356  PHE356     -0.0042
      8  CD2       42.1650   51.2340   20.2400 C.ar  356  PHE356     -0.0042
      9  CE1       39.5780   51.9330   20.5360 C.ar  356  PHE356     -0.0003
     10  CE2       41.3960   51.6470   19.1450 C.ar  356  PHE356     -0.0003
     11  CZ        40.0940   51.9050   19.2850 C.ar  356  PHE356     -0.0000
     12  N         41.9170   47.4550   22.2830 N.am  357  GLN357     -0.1965
     13  CA        42.1430   46.4550   21.2530 C.3   357  GLN357      0.1733
     14  C         41.9360   47.0500   19.8530 C.2   357  GLN357      0.2616
     15  O         40.9640   47.7190   19.5870 O.2   357  GLN357     -0.2715
     16  CB        41.0940   45.3640   21.4190 C.3   357  GLN357      0.0408
     17  CG        40.7320   44.6150   20.1460 C.3   357  GLN357      0.0908
     18  CD        41.7340   43.7280   19.5130 C.2   357  GLN357      0.2608
     19  OE1       42.4760   42.9840   20.1800 O.2   357  GLN357     -0.2717
     20  NE2       41.7160   43.6690   18.2000 N.am  357  GLN357     -0.0878
     21  N         42.8050   46.6800   18.9670 N.am  358  LEU358     -0.1963
     22  CA        42.7220   47.0150   17.5930 C.3   358  LEU358      0.1728
     23  C         43.5440   46.1220   16.7520 C.2   358  LEU358      0.2616
     24  O         44.5440   45.5220   17.2060 O.2   358  LEU358     -0.2715
     25  CB        43.1890   48.4210   17.2560 C.3   358  LEU358      0.0311
     26  CG        44.3150   49.2470   17.8040 C.3   358  LEU358      0.0022
     27  CD1       45.3170   48.6830   18.8580 C.3   358  LEU358      0.0001
     28  CD2       44.8590   50.1870   16.8450 C.3   358  LEU358      0.0001
     29  N         43.2060   46.1570   15.4560 N.am  359  ARG359     -0.1963
     30  CA        43.8640   45.3720   14.4460 C.3   359  ARG359      0.1729
     31  C         44.2410   46.1680   13.1970 C.2   359  ARG359      0.2616
     32  O         44.9140   45.6950   12.2250 O.2   359  ARG359     -0.2715
     33  CB        42.9650   44.1920   14.0980 C.3   359  ARG359      0.0348
     34  CG        41.9970   44.6150   13.1860 C.3   359  ARG359      0.0492
     35  CD        41.0240   43.4940   12.7410 C.3   359  ARG359      0.2205
     36  NE        40.2900   43.7270   11.5570 N.pl3 359  ARG359     -0.0865
     37  CZ        38.9750   43.5980   11.4130 C.cat 359  ARG359      0.5346
     38  NH1       38.2140   43.2850   12.4400 N.pl3 359  ARG359      0.1354
     39  NH2       38.4200   43.7220   10.2050 N.pl3 359  ARG359      0.1354
     40  N         43.8360   47.4090   13.2300 N.am  360  ASN360     -0.1972
     41  CA        43.9950   48.3190   12.1320 C.3   360  ASN360      0.1688
     42  C         44.8780   49.5460   12.5280 C.2   360  ASN360      0.2292
     43  O         45.1520   49.7720   13.7410 O.2   360  ASN360     -0.2864
     44  CB        42.6140   48.8680   11.6890 C.3   360  ASN360      0.1181
     45  CG        41.7730   47.8600   10.8350 C.2   360  ASN360      0.2629
     46  OD1       40.6030   47.6320   11.1610 O.2   360  ASN360     -0.2716
     47  ND2       42.3970   47.1570    9.9250 N.am  360  ASN360     -0.0877
     48  N         43.2870   55.6690   13.1300 N.3   363  HIS363     -0.1245
     49  CA        42.8630   57.0010   12.7520 C.3   363  HIS363      0.1576
     50  C         42.3060   57.7560   13.9340 C.2   363  HIS363      0.2261
     51  O         42.2010   57.2610   15.0130 O.2   363  HIS363     -0.2867
     52  CB        41.8530   57.0860   11.6250 C.3   363  HIS363      0.0459
     53  CG        40.6230   56.3000   11.8870 C.3   363  HIS363      0.0936
     54  ND1       39.9570   56.4140   13.0330 N.3   363  HIS363     -0.1997
     55  CD2       39.9000   55.4790   11.1170 C.3   363  HIS363      0.1077
     56  CE1       38.9810   55.5420   13.0520 C.3   363  HIS363      0.1782
     57  NE2       38.8470   55.0580   11.8600 N.3   363  HIS363     -0.1983
     58  N         39.5080   58.8100   14.6670 N.3   365  GLY365     -0.1210
     59  CA        38.2700   58.3520   15.2370 C.3   365  GLY365      0.1956
     60  C         38.5710   57.4570   16.4730 C.2   365  GLY365      0.2611
     61  O         37.9330   57.4970   17.5180 O.2   365  GLY365     -0.2717
     62  N         39.5030   56.5590   16.2860 N.am  366  HIS366     -0.1975
     63  CA        39.8620   55.6520   17.2950 C.3   366  HIS366      0.1656
     64  C         40.4140   56.5100   18.4280 C.2   366  HIS366      0.2291
     65  O         40.1230   56.3350   19.6310 O.2   366  HIS366     -0.2864
     66  CB        40.9920   54.8150   16.7760 C.3   366  HIS366      0.0771
     67  CG        40.6350   53.9340   15.6570 C.ar  366  HIS366      0.0820
     68  ND1       41.4340   53.7910   14.5550 N.ar  366  HIS366     -0.2267
     69  CD2       39.5730   53.1120   15.4740 C.ar  366  HIS366      0.1154
     70  CE1       40.9280   52.8380   13.7830 C.ar  366  HIS366      0.1986
     71  NE2       39.7670   52.4570   14.2840 N.ar  366  HIS366     -0.2212
     72  N         38.0170   57.9370   20.7650 N.3   369  LEU369     -0.1245
     73  CA        37.4190   57.0420   21.7330 C.3   369  LEU369      0.1561
     74  C         38.3470   56.9930   22.9080 C.2   369  LEU369      0.2260
     75  O         37.9350   56.9820   24.0280 O.2   369  LEU369     -0.2867
     76  CB        37.3470   55.6580   21.1550 C.3   369  LEU369      0.0270
     77  CG        36.0480   55.3280   20.4450 C.3   369  LEU369      0.0019
     78  CD1       35.5240   56.2420   19.4220 C.3   369  LEU369      0.0001
     79  CD2       36.1610   53.9630   19.8560 C.3   369  LEU369      0.0001
     80  N         43.7570   36.5260   15.3100 N.3   433  MET433     -0.1245
     81  CA        42.5230   37.2370   15.0010 C.3   433  MET433      0.1570
     82  C         41.5710   36.2480   14.3040 C.2   433  MET433      0.2261
     83  O         41.9650   35.5270   13.3320 O.2   433  MET433     -0.2867
     84  CB        42.8180   38.3650   14.0600 C.3   433  MET433      0.0387
     85  CG        41.6350   39.3320   13.9040 C.3   433  MET433      0.0595
     86  SD        41.0530   40.3830   15.2370 S.3   433  MET433     -0.1393
     87  CE        39.2160   40.5710   14.6940 C.3   433  MET433      0.0692
     88  N         38.6010   39.3310   23.2130 N.3   444  HIS444     -0.1241
     89  CA        39.3830   40.5430   23.2940 C.3   444  HIS444      0.1621
     90  C         39.2800   41.2130   24.6640 C.2   444  HIS444      0.2264
     91  O         40.3550   41.6400   25.2160 O.2   444  HIS444     -0.2867
     92  CB        39.1170   41.5330   22.1460 C.3   444  HIS444      0.0745
     93  CG        39.5100   40.9760   20.7810 C.ar  444  HIS444      0.0817
     94  ND1       39.1110   41.5460   19.6150 N.ar  444  HIS444     -0.2268
     95  CD2       40.2650   39.9010   20.4450 C.ar  444  HIS444      0.1154
     96  CE1       39.6720   40.9010   18.5930 C.ar  444  HIS444      0.1986
     97  NE2       40.3710   39.8670   19.0810 N.ar  444  HIS444     -0.2212
     98  N         37.3750   48.9000   29.3710 N.3   456  TYR456     -0.1227
     99  CA        37.6450   48.2360   28.1180 C.3   456  TYR456      0.1736
    100  C         36.7880   48.9760   27.1020 C.2   456  TYR456      0.2595
    101  O         35.6050   49.1210   27.2530 O.2   456  TYR456     -0.2718
    102  CB        37.2140   46.7740   28.1170 C.3   456  TYR456      0.0544
    103  CG        37.4770   46.1200   26.7470 C.2   456  TYR456     -0.0240
    104  CD1       38.6690   45.6310   26.4760 C.2   456  TYR456     -0.0222
    105  CD2       36.5460   46.1750   25.6900 C.2   456  TYR456     -0.0016
    106  CE1       39.0080   45.0900   25.2730 C.3   456  TYR456      0.0948
    107  CE2       36.8700   45.5380   24.4340 C.2   456  TYR456      0.0375
    108  CZ        38.0540   45.0470   24.2850 C.2   456  TYR456      0.1775
    109  OH        38.4410   44.5170   23.2200 O.2   456  TYR456     -0.2910
    110  N         37.4520   49.6010   26.1780 N.am  457  ILE457     -0.1966
    111  CA        36.7800   50.4120   25.1540 C.3   457  ILE457      0.1727
    112  C         36.2960   49.6000   23.9380 C.2   457  ILE457      0.2616
    113  O         37.0750   48.8280   23.3620 O.2   457  ILE457     -0.2715
    114  CB        37.6680   51.5020   24.5850 C.3   457  ILE457      0.0290
    115  CG1       38.0290   52.5310   25.6120 C.3   457  ILE457      0.0022
    116  CG2       36.8970   52.1010   23.3690 C.3   457  ILE457      0.0023
    117  CD1       39.5250   53.0230   25.4600 C.3   457  ILE457      0.0001
    118  N         35.0840   49.8760   23.4640 N.am  458  VAL458     -0.1963
    119  CA        34.5440   49.1200   22.4030 C.3   458  VAL458      0.1727
    120  C         33.6480   50.0360   21.5820 C.2   458  VAL458      0.2617
    121  O         32.9010   50.8340   22.0960 O.2   458  VAL458     -0.2715
    122  CB        33.7560   47.8780   22.8240 C.3   458  VAL458      0.0290
    123  CG1       32.6010   48.1580   23.7440 C.3   458  VAL458      0.0023
    124  CG2       33.2700   47.1430   21.6550 C.3   458  VAL458      0.0023
    125  N         33.7760   49.9540   20.2840 N.am  459  GLY459     -0.1940
    126  CA        33.0250   50.8930   19.5150 C.3   459  GLY459      0.2014
    127  C         32.1050   50.0660   18.6310 C.2   459  GLY459      0.2639
    128  O         31.5540   49.0460   19.0110 O.2   459  GLY459     -0.2714
    129  N         32.0690   50.4780   17.4100 N.am  460  ARG460     -0.1963
    130  CA        31.1810   49.8630   16.3900 C.3   460  ARG460      0.1729
    131  C         31.8430   48.6640   15.7320 C.2   460  ARG460      0.2616
    132  O         33.0130   48.6820   15.4020 O.2   460  ARG460     -0.2715
    133  CB        30.8960   50.9470   15.3130 C.3   460  ARG460      0.0348
    134  CG        31.1090   50.4820   13.7160 C.3   460  ARG460      0.0492
    135  CD        32.2120   51.2370   12.6890 C.3   460  ARG460      0.2205
    136  NE        33.2870   50.4880   11.9680 N.pl3 460  ARG460     -0.0865
    137  CZ        34.2560   49.6980   12.5370 C.cat 460  ARG460      0.5346
    138  NH1       34.2220   49.4770   13.7960 N.pl3 460  ARG460      0.1354
    139  NH2       35.2190   49.0510   11.8580 N.pl3 460  ARG460      0.1354
    140  N         31.0820   47.6390   15.4160 N.am  461  ASP461     -0.1958
    141  CA        31.4840   46.4900   14.6920 C.3   461  ASP461      0.1825
    142  C         32.8110   46.0000   15.1270 C.2   461  ASP461      0.2464
    143  O         33.6070   45.6580   14.2950 O.2   461  ASP461     -0.2730
    144  CB        31.4890   46.7330   13.1670 C.3   461  ASP461      0.1450
    145  CG        31.5280   45.4690   12.3560 C.2   461  ASP461      0.3671
    146  OD1       32.1290   45.5540   11.2070 O.co2 461  ASP461     -0.2456
    147  OD2       31.0670   44.3300   12.6910 O.co2 461  ASP461     -0.2456
    148  N         32.9890   45.7500   16.4230 N.am  462  PRO462     -0.2715
    149  CA        34.2760   45.2340   16.8470 C.3   462  PRO462      0.1536
    150  C         34.4620   43.7800   16.3530 C.2   462  PRO462      0.2598
    151  O         33.6120   43.0320   16.3190 O.2   462  PRO462     -0.2715
    152  CB        34.1740   45.3490   18.3530 C.3   462  PRO462      0.0310
    153  CG        32.6950   45.1450   18.6510 C.3   462  PRO462      0.0237
    154  CD        32.0520   45.9310   17.5490 C.3   462  PRO462      0.0939
    155  N         35.6460   43.4720   15.9120 N.am  463  ALA463     -0.1978
    156  CA        36.1120   42.1710   15.4510 C.3   463  ALA463      0.1597
    157  C         35.2640   41.7750   14.2180 C.2   463  ALA463      0.2287
    158  O         35.2100   40.6210   13.8950 O.2   463  ALA463     -0.2864
    159  CB        36.0000   41.1560   16.5160 C.3   463  ALA463      0.0319
    160  N         29.6230   55.0180   20.2860 N.3   499  ARG499     -0.1231
    161  CA        28.9020   55.0760   19.0230 C.3   499  ARG499      0.1694
    162  C         29.9520   55.3390   17.8820 C.2   499  ARG499      0.2592
    163  O         31.1240   55.6660   18.1390 O.2   499  ARG499     -0.2718
    164  CB        27.8800   56.2860   19.1020 C.3   499  ARG499      0.0321
    165  CG        26.4030   56.0320   19.6210 C.3   499  ARG499      0.0489
    166  CD        25.3940   57.2680   19.2710 C.3   499  ARG499      0.2205
    167  NE        26.0220   58.6480   19.2600 N.pl3 499  ARG499     -0.0865
    168  CZ        25.4240   59.8190   18.8160 C.cat 499  ARG499      0.5346
    169  NH1       24.1800   59.8360   18.2960 N.pl3 499  ARG499      0.1354
    170  NH2       26.0760   61.0040   18.8980 N.pl3 499  ARG499      0.1354
    171  N         29.5320   55.1850   16.6520 N.am  500  VAL500     -0.1966
    172  CA        30.4380   55.3170   15.5170 C.3   500  VAL500      0.1727
    173  C         30.9080   56.7480   15.3020 C.2   500  VAL500      0.2616
    174  O         30.1160   57.6960   15.2740 O.2   500  VAL500     -0.2715
    175  CB        29.8490   54.7560   14.2490 C.3   500  VAL500      0.0290
    176  CG1       28.8360   55.6160   13.6690 C.3   500  VAL500      0.0023
    177  CG2       30.8900   54.6980   13.2990 C.3   500  VAL500      0.0023
    178  N         32.2170   56.8860   15.1800 N.am  501  ALA501     -0.1977
    179  CA        32.8910   58.1050   14.8940 C.3   501  ALA501      0.1597
    180  C         33.2710   58.1890   13.4020 C.2   501  ALA501      0.2287
    181  O         33.6820   57.1820   12.8140 O.2   501  ALA501     -0.2864
    182  CB        34.1810   58.2280   15.7950 C.3   501  ALA501      0.0319
    183  N         37.2370   64.4250   13.5240 N.3   510  MET510     -0.1245
    184  CA        36.5410   63.1360   13.7120 C.3   510  MET510      0.1570
    185  C         35.6170   63.4540   14.8800 C.2   510  MET510      0.2261
    186  O         36.0350   64.1630   15.8190 O.2   510  MET510     -0.2867
    187  CB        37.5890   62.0560   14.0490 C.3   510  MET510      0.0387
    188  CG        38.5190   61.8350   12.8970 C.3   510  MET510      0.0595
    189  SD        37.6520   61.1660   11.4980 S.3   510  MET510     -0.1393
    190  CE        37.1960   59.4070   12.0920 C.3   510  MET510      0.0692
    191  N         32.9640   58.9400    5.7720 N.3   523  PHE523     -0.1241
    192  CA        33.4320   57.6250    6.2180 C.3   523  PHE523      0.1605
    193  C         34.5830   57.0810    5.2880 C.2   523  PHE523      0.2264
    194  O         34.3880   56.8070    4.0880 O.2   523  PHE523     -0.2867
    195  CB        32.2760   56.6360    6.1610 C.3   523  PHE523      0.0534
    196  CG        31.2560   56.8070    7.2550 C.ar  523  PHE523     -0.0203
    197  CD1       30.1470   57.5950    7.0530 C.ar  523  PHE523     -0.0042
    198  CD2       31.3890   56.1090    8.4840 C.ar  523  PHE523     -0.0042
    199  CE1       29.1920   57.7590    8.0850 C.ar  523  PHE523     -0.0003
    200  CE2       30.4900   56.2310    9.4770 C.ar  523  PHE523     -0.0003
    201  CZ        29.3660   57.0910    9.3050 C.ar  523  PHE523     -0.0000
@<TRIPOS>BOND
     1   194   193    2
     2   193   192    1
     3   191   192    1
     4   195   192    1
     5   195   196    1
     6   197   196   ar
     7   197   199   ar
     8   196   198   ar
     9   199   201   ar
    10   198   200   ar
    11   201   200   ar
    12    47    45   am
    13    39    37    1
    14    45    46    2
    15    45    44    1
    16    55    57    1
    17    55    53    1
    18   146   145   ar
    19    37    36    2
    20    37    38    1
    21   189   190    1
    22   189   188    1
    23    36    35    1
    24    52    53    1
    25    52    49    1
    26    44    41    1
    27   139   137    1
    28    57    56    1
    29    53    54    1
    30   136   137    2
    31   136   135    1
    32    41    42    1
    33    41    40    1
    34    32    31    2
    35   145   147   ar
    36   145   144    1
    37    42    43    2
    38   137   138    1
    39   135   134    1
    40    35    34    1
    41    49    48    1
    42    49    50    1
    43   181   180    2
    44   188   187    1
    45    54    56    1
    46   144   141    1
    47    34    33    1
    48    31    40   am
    49    31    30    1
    50   177   175    1
    51    83    82    2
    52   180   179    1
    53   183   184    1
    54   176   175    1
    55   184   187    1
    56   184   185    1
    57   134   133    1
    58    70    71   ar
    59    70    68   ar
    60   158   157    2
    61    85    84    1
    62    85    86    1
    63    50    51    2
    64    84    81    1
    65    33    30    1
    66   157   156    1
    67   175   172    1
    68    71    69   ar
    69   143   142    2
    70    82    81    1
    71    30    29    1
    72    68    67   ar
    73    58    59    1
    74   141   142    1
    75   141   140    1
    76    87    86    1
    77   185   186    2
    78   179   178    1
    79   179   182    1
    80    81    80    1
    81   142   148   am
    82   178   173   am
    83    59    60    1
    84   174   173    2
    85   173   172    1
    86   133   130    1
    87   132   131    2
    88   140   131   am
    89   156   155    1
    90   156   159    1
    91    29    23   am
    92    69    67   ar
    93   172   171    1
    94    67    66    1
    95   131   130    1
    96   155   150   am
    97    62    60   am
    98    62    63    1
    99   151   150    2
   100   150   149    1
   101   130   129    1
   102   148   149    1
   103   148   154    1
   104    60    61    2
   105   171   162   am
   106    23    24    2
   107    23    22    1
   108    66    63    1
   109    28    26    1
   110   149   152    1
   111    25    22    1
   112    25    26    1
   113    63    64    1
   114   129   127   am
   115   154   153    1
   116    22    21    1
   117    26    27    1
   118   162   163    2
   119   162   161    1
   120    20    18   am
   121   169   168    1
   122   152   153    1
   123    64    65    2
   124    96    97   ar
   125    96    94   ar
   126   127   128    2
   127   127   126    1
   128   168   170    1
   129   168   167    2
   130    21    14   am
   131   161   164    1
   132   161   160    1
   133    97    95   ar
   134   164   165    1
   135    10    11   ar
   136    10     8   ar
   137   167   166    1
   138   166   165    1
   139    11     9   ar
   140    78    77    1
   141    18    17    1
   142    18    19    2
   143   126   125    1
   144    15    14    2
   145    94    93   ar
   146    14    13    1
   147    79    77    1
   148    17    16    1
   149     8     6   ar
   150   125   120   am
   151    77    76    1
   152    95    93   ar
   153     9     7   ar
   154    72    73    1
   155    93    92    1
   156    76    73    1
   157    13    16    1
   158    13    12    1
   159     6     7   ar
   160     6     5    1
   161   120   121    2
   162   120   119    1
   163   124   122    1
   164    73    74    1
   165     4     3    2
   166    92    89    1
   167    12     3   am
   168   119   122    1
   169   119   118    1
   170     3     2    1
   171     5     2    1
   172   122   123    1
   173    74    75    2
   174    88    89    1
   175   109   108    2
   176    89    90    1
   177   113   112    2
   178   116   114    1
   179     2     1    1
   180   118   112   am
   181   112   111    1
   182   108   107    1
   183   108   106    1
   184   107   105    2
   185   114   111    1
   186   114   115    1
   187    90    91    2
   188   111   110    1
   189   106   104    1
   190   117   115    1
   191   105   103    1
   192   110   100   am
   193   104   103    2
   194   103   102    1
   195   100   101    2
   196   100    99    1
   197   102    99    1
   198    99    98    1
