@<TRIPOS>MOLECULE
tmp/1xnkA00.pdb
 213 210 0 0 0
SMALL
GASTEIGER

@<TRIPOS>ATOM
      1  N          9.5730   17.4350   18.3960 N.3     7  THR7       -0.1218
      2  CA         9.5100   16.0770   17.8650 C.3     7  THR7        0.1862
      3  C          8.3460   15.3710   18.5360 C.2     7  THR7        0.2287
      4  O          7.8260   15.8390   19.5500 O.2     7  THR7       -0.2866
      5  CB        10.7760   15.2460   18.1630 C.3     7  THR7        0.1770
      6  OG1       10.8800   15.0280   19.5770 O.3     7  THR7       -0.2211
      7  CG2       12.0230   15.9580   17.6570 C.3     7  THR7        0.0375
      8  N          9.8040   15.6030   13.1090 N.3    16  SER16      -0.1217
      9  CA        10.9410   16.3010   13.6790 C.3    16  SER16       0.1889
     10  C         10.9930   17.6450   12.9980 C.2    16  SER16       0.2288
     11  O         10.8710   17.7400   11.7770 O.2    16  SER16      -0.2866
     12  CB        12.2570   15.5660   13.4220 C.3    16  SER16       0.2089
     13  OG        13.3510   16.3560   13.8740 O.3    16  SER16      -0.2183
     14  N         13.3740   21.1830   13.3500 N.3    18  TRP18      -0.1241
     15  CA        14.4800   21.8670   13.9970 C.3    18  TRP18       0.1605
     16  C         14.5910   23.2320   13.3530 C.2    18  TRP18       0.2264
     17  O         14.5480   23.3560   12.1280 O.2    18  TRP18      -0.2867
     18  CB        15.7990   21.1170   13.8060 C.3    18  TRP18       0.0550
     19  CG        16.9340   21.7870   14.5240 C.ar   18  TRP18       0.0003
     20  CD1       17.3110   21.5900   15.8210 C.ar   18  TRP18       0.0946
     21  CD2       17.8000   22.8040   14.0040 C.ar   18  TRP18       0.0152
     22  NE1       18.3600   22.4210   16.1410 N.ar   18  TRP18      -0.2442
     23  CE2       18.6780   23.1770   15.0450 C.ar   18  TRP18       0.0810
     24  CE3       17.9170   23.4380   12.7590 C.ar   18  TRP18       0.0012
     25  CZ2       19.6640   24.1590   14.8800 C.ar   18  TRP18       0.0191
     26  CZ3       18.8960   24.4140   12.5950 C.ar   18  TRP18       0.0001
     27  CH2       19.7570   24.7630   13.6540 C.ar   18  TRP18       0.0015
     28  N         17.0450   29.1390    9.5310 N.3    44  ASN44      -0.1225
     29  CA        17.7990   27.9180    9.2670 C.3    44  ASN44       0.1785
     30  C         16.9380   26.8270    9.8890 C.2    44  ASN44       0.2597
     31  O         16.8120   26.7630   11.1090 O.2    44  ASN44      -0.2718
     32  CB        19.1590   27.9740    9.9700 C.3    44  ASN44       0.1169
     33  CG        20.0220   26.7590    9.6790 C.2    44  ASN44       0.2627
     34  OD1       21.1060   26.6040   10.2510 O.2    44  ASN44      -0.2716
     35  ND2       19.5530   25.8980    8.7850 N.am   44  ASN44      -0.0877
     36  N         16.3480   25.9680    9.0620 N.am   45  TRP45      -0.1962
     37  CA        15.4710   24.9330    9.5970 C.3    45  TRP45       0.1771
     38  C         15.3170   23.7130    8.6920 C.2    45  TRP45       0.2619
     39  O         15.6020   23.7620    7.4970 O.2    45  TRP45      -0.2715
     40  CB        14.0820   25.5260    9.8240 C.3    45  TRP45       0.0590
     41  CG        13.4330   25.9100    8.5330 C.ar   45  TRP45       0.0006
     42  CD1       13.6540   27.0500    7.8080 C.ar   45  TRP45       0.0946
     43  CD2       12.5460   25.1040    7.7490 C.ar   45  TRP45       0.0152
     44  NE1       12.9640   26.9980    6.6200 N.ar   45  TRP45      -0.2442
     45  CE2       12.2760   25.8150    6.5580 C.ar   45  TRP45       0.0810
     46  CE3       11.9540   23.8460    7.9370 C.ar   45  TRP45       0.0012
     47  CZ2       11.4400   25.3080    5.5570 C.ar   45  TRP45       0.0191
     48  CZ3       11.1230   23.3440    6.9400 C.ar   45  TRP45       0.0001
     49  CH2       10.8740   24.0740    5.7660 C.ar   45  TRP45       0.0015
     50  N         14.8390   22.6230    9.2830 N.am   46  VAL46      -0.1977
     51  CA        14.5810   21.3830    8.5550 C.3    46  VAL46       0.1596
     52  C         13.5310   20.6100    9.3460 C.2    46  VAL46       0.2287
     53  O         13.6320   20.4810   10.5670 O.2    46  VAL46      -0.2864
     54  CB        15.8700   20.5150    8.3760 C.3    46  VAL46       0.0276
     55  CG1       16.4600   20.1360    9.7230 C.3    46  VAL46       0.0022
     56  CG2       15.5450   19.2580    7.5630 C.3    46  VAL46       0.0022
     57  N         15.7330   22.4940    0.3660 N.3    73  TYR73      -0.1241
     58  CA        15.7420   21.1260   -0.1400 C.3    73  TYR73       0.1605
     59  C         14.4450   20.4090    0.2060 C.2    73  TYR73       0.2264
     60  O         13.7750   20.7490    1.1830 O.2    73  TYR73      -0.2867
     61  CB        16.8590   20.2690    0.4800 C.3    73  TYR73       0.0534
     62  CG        18.2190   20.9010    0.6590 C.ar   73  TYR73      -0.0201
     63  CD1       18.8410   21.5940   -0.3750 C.ar   73  TYR73      -0.0009
     64  CD2       18.9070   20.7560    1.8670 C.ar   73  TYR73      -0.0009
     65  CE1       20.1170   22.1300   -0.2120 C.ar   73  TYR73       0.0417
     66  CE2       20.1790   21.2850    2.0390 C.ar   73  TYR73       0.0417
     67  CZ        20.7780   21.9710    0.9960 C.ar   73  TYR73       0.1957
     68  OH        22.0410   22.4950    1.1650 O.3    73  TYR73      -0.2866
     69  N         15.3450   12.5530    4.7510 N.3    77  TYR77      -0.1241
     70  CA        16.3740   13.0090    5.6620 C.3    77  TYR77       0.1605
     71  C         16.3840   12.1730    6.9290 C.2    77  TYR77       0.2264
     72  O         15.3290   11.8690    7.4820 O.2    77  TYR77      -0.2867
     73  CB        16.0630   14.4740    5.9670 C.3    77  TYR77       0.0534
     74  CG        16.8610   15.1060    7.0680 C.ar   77  TYR77      -0.0201
     75  CD1       18.2080   15.4190    6.8950 C.ar   77  TYR77      -0.0009
     76  CD2       16.2580   15.4220    8.2830 C.ar   77  TYR77      -0.0009
     77  CE1       18.9340   16.0390    7.9100 C.ar   77  TYR77       0.0417
     78  CE2       16.9710   16.0390    9.3000 C.ar   77  TYR77       0.0417
     79  CZ        18.3070   16.3440    9.1090 C.ar   77  TYR77       0.1957
     80  OH        19.0170   16.9400   10.1270 O.3    77  TYR77      -0.2866
     81  N         19.1080   10.1520   10.3050 N.3    79  TRP79      -0.1241
     82  CA        20.3710    9.9930   11.0200 C.3    79  TRP79       0.1605
     83  C         20.6120    8.5570   11.4730 C.2    79  TRP79       0.2264
     84  O         19.6840    7.7570   11.5810 O.2    79  TRP79      -0.2867
     85  CB        20.3940   10.8350   12.3030 C.3    79  TRP79       0.0550
     86  CG        20.3310   12.3180   12.1610 C.ar   79  TRP79       0.0003
     87  CD1       19.2270   13.0730   11.8830 C.ar   79  TRP79       0.0946
     88  CD2       21.4100   13.2410   12.3560 C.ar   79  TRP79       0.0152
     89  NE1       19.5500   14.4090   11.8990 N.ar   79  TRP79      -0.2442
     90  CE2       20.8830   14.5410   12.1860 C.ar   79  TRP79       0.0810
     91  CE3       22.7720   13.0960   12.6590 C.ar   79  TRP79       0.0012
     92  CZ2       21.6690   15.6930   12.3070 C.ar   79  TRP79       0.0191
     93  CZ3       23.5570   14.2460   12.7800 C.ar   79  TRP79       0.0001
     94  CH2       23.0000   15.5260   12.6040 C.ar   79  TRP79       0.0015
     95  N         24.4610   11.9790    9.2300 N.3    86  GLU86      -0.1245
     96  CA        23.2690   12.7210    8.8310 C.3    86  GLU86       0.1567
     97  C         23.1890   12.4400    7.3330 C.2    86  GLU86       0.2260
     98  O         24.1620   12.6640    6.6170 O.2    86  GLU86      -0.2867
     99  CB        23.4460   14.2230    9.0740 C.3    86  GLU86       0.0388
    100  CG        22.2400   15.0660    8.6590 C.3    86  GLU86       0.1160
    101  CD        22.4500   16.5510    8.9120 C.2    86  GLU86       0.3649
    102  OE1       23.5620   17.0490    8.6430 O.co2  86  GLU86      -0.2457
    103  OE2       21.5050   17.2250    9.3700 O.co2  86  GLU86      -0.2457
    104  N         20.9200   12.4110    3.4080 N.3    88  TYR88      -0.1241
    105  CA        19.9030   13.0280    2.5690 C.3    88  TYR88       0.1605
    106  C         19.7410   12.3440    1.2200 C.2    88  TYR88       0.2264
    107  O         20.7280   11.9430    0.6040 O.2    88  TYR88      -0.2867
    108  CB        20.2800   14.4650    2.2100 C.3    88  TYR88       0.0534
    109  CG        20.2960   15.4970    3.3010 C.ar   88  TYR88      -0.0201
    110  CD1       21.3840   15.6280    4.1620 C.ar   88  TYR88      -0.0009
    111  CD2       19.2570   16.4180    3.4060 C.ar   88  TYR88      -0.0009
    112  CE1       21.4340   16.6690    5.0980 C.ar   88  TYR88       0.0417
    113  CE2       19.2960   17.4470    4.3230 C.ar   88  TYR88       0.0417
    114  CZ        20.3820   17.5740    5.1620 C.ar   88  TYR88       0.1957
    115  OH        20.4030   18.6310    6.0400 O.3    88  TYR88      -0.2866
    116  N         30.6900   17.9120    8.8440 N.3   122  ARG122     -0.1245
    117  CA        30.2670   19.0410    9.6560 C.3   122  ARG122      0.1563
    118  C         31.1520   18.9840   10.8940 C.2   122  ARG122      0.2260
    119  O         31.2630   17.9410   11.5280 O.2   122  ARG122     -0.2867
    120  CB        28.7940   18.8820   10.0260 C.3   122  ARG122      0.0307
    121  CG        27.8730   18.9320    8.8190 C.3   122  ARG122      0.0489
    122  CD        27.5990   20.3630    8.4260 C.3   122  ARG122      0.2205
    123  NE        26.7120   21.0000    9.3920 N.pl3 122  ARG122     -0.0865
    124  CZ        26.7280   22.2960    9.6840 C.cat 122  ARG122      0.5346
    125  NH1       27.5940   23.1030    9.0860 N.pl3 122  ARG122      0.1354
    126  NH2       25.8740   22.7830   10.5740 N.pl3 122  ARG122      0.1354
    127  N         25.5550   21.2450   15.3560 N.3   126  PRO126     -0.2102
    128  CA        24.4080   20.6280   16.0260 C.3   126  PRO126      0.1504
    129  C         24.1150   19.2560   15.4290 C.2   126  PRO126      0.2576
    130  O         24.2710   19.0510   14.2250 O.2   126  PRO126     -0.2718
    131  CB        23.2720   21.6130   15.7540 C.3   126  PRO126      0.0282
    132  CG        23.9840   22.9220   15.5990 C.3   126  PRO126      0.0208
    133  CD        25.1820   22.5450   14.7750 C.3   126  PRO126      0.0893
    134  N         23.6880   18.3250   16.2740 N.am  127  SER127     -0.1938
    135  CA        23.3590   16.9770   15.8300 C.3   127  SER127      0.2055
    136  C         22.4240   16.3440   16.8500 C.2   127  SER127      0.2643
    137  O         22.1230   16.9420   17.8820 O.2   127  SER127     -0.2714
    138  CB        24.6190   16.1200   15.7170 C.3   127  SER127      0.2130
    139  OG        25.0270   15.6590   16.9950 O.3   127  SER127     -0.2179
    140  N         21.9780   15.1250   16.5680 N.am  128  ILE128     -0.1963
    141  CA        21.0830   14.4400   17.4870 C.3   128  ILE128      0.1727
    142  C         21.7950   13.9780   18.7580 C.2   128  ILE128      0.2616
    143  O         21.1610   13.4360   19.6620 O.2   128  ILE128     -0.2715
    144  CB        20.4020   13.2320   16.8190 C.3   128  ILE128      0.0290
    145  CG1       21.4540   12.2470   16.3040 C.3   128  ILE128      0.0022
    146  CG2       19.5040   13.7160   15.6830 C.3   128  ILE128      0.0023
    147  CD1       20.8690   10.9060   15.8940 C.3   128  ILE128      0.0001
    148  N         23.1090   14.1930   18.8270 N.am  129  GLU129     -0.1963
    149  CA        23.8870   13.8160   20.0100 C.3   129  GLU129      0.1733
    150  C         24.5390   15.0420   20.6370 C.2   129  GLU129      0.2616
    151  O         25.4370   14.9120   21.4720 O.2   129  GLU129     -0.2715
    152  CB        25.0030   12.8290   19.6580 C.3   129  GLU129      0.0429
    153  CG        24.5680   11.4920   19.1140 C.3   129  GLU129      0.1163
    154  CD        25.7580   10.5720   18.8970 C.2   129  GLU129      0.3649
    155  OE1       26.9070   11.0680   18.9020 O.co2 129  GLU129     -0.2457
    156  OE2       25.5490    9.3600   18.7180 O.co2 129  GLU129     -0.2457
    157  N         24.0980   16.2290   20.2380 N.am  130  GLY130     -0.1955
    158  CA        24.6860   17.4450   20.7710 C.3   130  GLY130      0.1869
    159  C         25.6850   18.0140   19.7800 C.2   130  GLY130      0.2309
    160  O         25.6270   17.7000   18.5920 O.2   130  GLY130     -0.2863
    161  N         30.6980   15.2290   12.4090 N.3   134  PHE134     -0.1241
    162  CA        30.1850   14.0400   11.7470 C.3   134  PHE134      0.1605
    163  C         30.1190   14.1780   10.2370 C.2   134  PHE134      0.2264
    164  O         30.1960   15.2770    9.6970 O.2   134  PHE134     -0.2867
    165  CB        28.7760   13.7480   12.2640 C.3   134  PHE134      0.0534
    166  CG        27.8450   14.9340   12.1750 C.ar  134  PHE134     -0.0203
    167  CD1       27.8580   15.9220   13.1570 C.ar  134  PHE134     -0.0042
    168  CD2       26.9850   15.0830   11.0880 C.ar  134  PHE134     -0.0042
    169  CE1       27.0340   17.0400   13.0600 C.ar  134  PHE134     -0.0003
    170  CE2       26.1570   16.1990   10.9800 C.ar  134  PHE134     -0.0003
    171  CZ        26.1800   17.1800   11.9670 C.ar  134  PHE134     -0.0000
    172  N         28.1900   13.6750    6.5020 N.3   136  GLN136     -0.1245
    173  CA        26.8680   13.7960    5.9170 C.3   136  GLN136      0.1566
    174  C         26.9430   13.0340    4.6050 C.2   136  GLN136      0.2260
    175  O         27.9090   13.1930    3.8540 O.2   136  GLN136     -0.2867
    176  CB        26.5270   15.2480    5.5870 C.3   136  GLN136      0.0367
    177  CG        26.4310   16.1910    6.7550 C.3   136  GLN136      0.0905
    178  CD        26.1390   17.6000    6.2880 C.2   136  GLN136      0.2608
    179  OE1       26.9180   18.1880    5.5340 O.2   136  GLN136     -0.2717
    180  NE2       25.0110   18.1480    6.7220 N.am  136  GLN136     -0.0878
    181  N         15.9480    8.7630   13.4830 N.3   171  TYR171     -0.1241
    182  CA        14.7900    9.0650   12.6500 C.3   171  TYR171      0.1605
    183  C         15.0350    9.0970   11.1440 C.2   171  TYR171      0.2264
    184  O         16.1720    9.2030   10.6780 O.2   171  TYR171     -0.2867
    185  CB        14.0790   10.3370   13.1360 C.3   171  TYR171      0.0534
    186  CG        14.8070   11.6430   12.9480 C.ar  171  TYR171     -0.0201
    187  CD1       14.9090   12.2340   11.6920 C.ar  171  TYR171     -0.0009
    188  CD2       15.3400   12.3220   14.0420 C.ar  171  TYR171     -0.0009
    189  CE1       15.5200   13.4810   11.5290 C.ar  171  TYR171      0.0417
    190  CE2       15.9520   13.5670   13.8910 C.ar  171  TYR171      0.0417
    191  CZ        16.0350   14.1370   12.6340 C.ar  171  TYR171      0.1957
    192  OH        16.6260   15.3710   12.4850 O.3   171  TYR171     -0.2866
    193  N         13.7460   21.6550    3.9110 N.3   177  GLU177     -0.1245
    194  CA        14.7800   22.3950    4.6250 C.3   177  GLU177      0.1567
    195  C         15.0110   23.7380    3.9600 C.2   177  GLU177      0.2260
    196  O         14.7720   23.8950    2.7630 O.2   177  GLU177     -0.2867
    197  CB        16.0890   21.5920    4.6410 C.3   177  GLU177      0.0388
    198  CG        17.2630   22.3240    5.2900 C.3   177  GLU177      0.1160
    199  CD        18.4600   21.4230    5.5330 C.2   177  GLU177      0.3649
    200  OE1       18.3080   20.1890    5.4320 O.co2 177  GLU177     -0.2457
    201  OE2       19.5510   21.9500    5.8340 O.co2 177  GLU177     -0.2457
    202  N         17.5390   27.6150    4.2650 N.3   179  TYR179     -0.1241
    203  CA        18.5660   28.4370    4.8940 C.3   179  TYR179      0.1605
    204  C         18.5080   29.8000    4.2250 C.2   179  TYR179      0.2264
    205  O         18.8140   29.9260    3.0390 O.2   179  TYR179     -0.2867
    206  CB        19.9640   27.8400    4.7130 C.3   179  TYR179      0.0534
    207  CG        20.9980   28.5690    5.5430 C.ar  179  TYR179     -0.0201
    208  CD1       20.9500   28.5270    6.9350 C.ar  179  TYR179     -0.0009
    209  CD2       21.9790   29.3570    4.9430 C.ar  179  TYR179     -0.0009
    210  CE1       21.8450   29.2550    7.7120 C.ar  179  TYR179      0.0417
    211  CE2       22.8800   30.0900    5.7110 C.ar  179  TYR179      0.0417
    212  CZ        22.8060   30.0360    7.0940 C.ar  179  TYR179      0.1957
    213  OH        23.6760   30.7740    7.8650 O.3   179  TYR179     -0.2866
@<TRIPOS>BOND
     1    63    65   ar
     2    63    62   ar
     3    65    67   ar
     4    58    59    1
     5    58    57    1
     6    58    61    1
     7    59    60    2
     8    61    62    1
     9   107   106    2
    10    62    64   ar
    11    67    68    1
    12    67    66   ar
    13   106   105    1
    14    64    66   ar
    15   108   105    1
    16   108   109    1
    17   105   104    1
    18   196   195    2
    19   205   204    2
    20   109   111   ar
    21   109   110   ar
    22   111   113   ar
    23   175   174    2
    24   193   194    1
    25   195   194    1
    26   110   112   ar
    27   204   203    1
    28   202   203    1
    29   113   114   ar
    30   174   173    1
    31   194   197    1
    32   197   198    1
    33   206   203    1
    34   206   207    1
    35    69    70    1
    36   209   207   ar
    37   209   211   ar
    38   112   114   ar
    39   114   115    1
    40   198   199    1
    41   200   199   ar
    42   199   201   ar
    43   179   178    2
    44   207   208   ar
    45    47    49   ar
    46    47    45   ar
    47   176   173    1
    48   176   177    1
    49    70    73    1
    50    70    71    1
    51   211   212   ar
    52    49    48   ar
    53   173   172    1
    54    73    74    1
    55   178   180   am
    56   178   177    1
    57    45    44   ar
    58    45    43   ar
    59    98    97    2
    60    44    42   ar
    61    75    74   ar
    62    75    77   ar
    63    71    72    2
    64   208   210   ar
    65    48    46   ar
    66    74    76   ar
    67   212   210   ar
    68   212   213    1
    69    97    96    1
    70    39    38    2
    71    56    54    1
    72    43    46   ar
    73    43    41   ar
    74    42    41   ar
    75    77    79   ar
    76    76    78   ar
    77    54    51    1
    78    54    55    1
    79   122   121    1
    80   122   123    1
    81    41    40    1
    82    51    50    1
    83    51    52    1
    84   102   101   ar
    85   100   101    1
    86   100    99    1
    87    38    50   am
    88    38    37    1
    89    35    33   am
    90   121   120    1
    91    96    99    1
    92    96    95    1
    93   116   117    1
    94   101   103   ar
    95    36    37    1
    96    36    30   am
    97   125   124    1
    98    79    78   ar
    99    79    80    1
   100    29    28    1
   101    29    30    1
   102    29    32    1
   103    52    53    2
   104   123   124    2
   105    37    40    1
   106   117   120    1
   107   117   118    1
   108    33    32    1
   109    33    34    2
   110   124   126    1
   111   164   163    2
   112    30    31    2
   113   163   162    1
   114    81    82    1
   115   184   183    2
   116   118   119    2
   117   170   168   ar
   118   170   171   ar
   119    82    83    1
   120    82    85    1
   121   168   166   ar
   122   183   182    1
   123    83    84    2
   124   189   187   ar
   125   189   191   ar
   126   187   186   ar
   127   162   165    1
   128   162   161    1
   129    11    10    2
   130    87    89   ar
   131    87    86   ar
   132    89    90   ar
   133   171   169   ar
   134    17    16    2
   135    86    85    1
   136    86    88   ar
   137   166   165    1
   138   166   167   ar
   139    90    92   ar
   140    90    88   ar
   141    92    94   ar
   142    88    91   ar
   143   192   191    1
   144    26    24   ar
   145    26    27   ar
   146    94    93   ar
   147   191   190   ar
   148   182   185    1
   149   182   181    1
   150    91    93   ar
   151    24    21   ar
   152   186   185    1
   153   186   188   ar
   154    10     9    1
   155   169   167   ar
   156     8     9    1
   157    14    15    1
   158    16    15    1
   159    12     9    1
   160    12    13    1
   161    27    25   ar
   162    18    15    1
   163    18    19    1
   164   190   188   ar
   165    21    19   ar
   166    21    23   ar
   167   130   129    2
   168    19    20   ar
   169   133   127    1
   170   133   132    1
   171    25    23   ar
   172    23    22   ar
   173   127   128    1
   174   129   128    1
   175   129   134   am
   176   132   131    1
   177   146   144    1
   178   138   135    1
   179   138   139    1
   180   131   128    1
   181    20    22   ar
   182   135   134    1
   183   135   136    1
   184   147   145    1
   185   145   144    1
   186   140   136   am
   187   140   141    1
   188   144   141    1
   189   136   137    2
   190   141   142    1
   191     7     5    1
   192     2     5    1
   193     2     1    1
   194     2     3    1
   195     5     6    1
   196     3     4    2
   197   160   159    2
   198   156   154   ar
   199   142   148   am
   200   142   143    2
   201   148   149    1
   202   154   155   ar
   203   154   153    1
   204   153   152    1
   205   152   149    1
   206   159   158    1
   207   149   150    1
   208   157   150   am
   209   157   158    1
   210   150   151    2
