@<TRIPOS>MOLECULE
tmp/1xnnA00.pdb
 187 175 0 0 0
SMALL
GASTEIGER

@<TRIPOS>ATOM
      1  N         32.0460    0.0160   -3.5210 N.3    30  LEU30      -0.1245
      2  CA        32.2310   -0.2500   -2.1010 C.3    30  LEU30       0.1561
      3  C         33.3520    0.5560   -1.4640 C.2    30  LEU30       0.2260
      4  O         33.2710    0.9040   -0.2860 O.2    30  LEU30      -0.2867
      5  CB        32.4430   -1.7500   -1.8690 C.3    30  LEU30       0.0270
      6  CG        31.1420   -2.5320   -1.6330 C.3    30  LEU30       0.0019
      7  CD1       30.4680   -2.0240   -0.3690 C.3    30  LEU30       0.0001
      8  CD2       30.2080   -2.3700   -2.8120 C.3    30  LEU30       0.0001
      9  N         31.7900    3.8640   -0.8860 N.3    33  LEU33      -0.1231
     10  CA        30.8270    3.7520    0.2090 C.3    33  LEU33       0.1693
     11  C         31.5460    3.7230    1.5530 C.2    33  LEU33       0.2592
     12  O         31.1080    4.3610    2.5070 O.2    33  LEU33      -0.2718
     13  CB        29.9580    2.4900    0.0530 C.3    33  LEU33       0.0284
     14  CG        28.8110    2.5450   -0.9730 C.3    33  LEU33       0.0019
     15  CD1       28.1890    1.1730   -1.1570 C.3    33  LEU33       0.0001
     16  CD2       27.7550    3.5430   -0.4900 C.3    33  LEU33       0.0001
     17  N         32.6540    2.9900    1.6280 N.am   34  ASN34      -0.1974
     18  CA        33.4130    2.9130    2.8690 C.3    34  ASN34       0.1688
     19  C         33.9910    4.2820    3.2090 C.2    34  ASN34       0.2292
     20  O         33.9980    4.6880    4.3700 O.2    34  ASN34      -0.2864
     21  CB        34.5490    1.8820    2.7580 C.3    34  ASN34       0.1181
     22  CG        34.0470    0.4390    2.7030 C.2    34  ASN34       0.2629
     23  OD1       34.8430   -0.4980    2.5530 O.2    34  ASN34      -0.2716
     24  ND2       32.7360    0.2510    2.8240 N.am   34  ASN34      -0.0877
     25  N         32.7730    7.2280    2.2370 N.3    36  LEU36      -0.1231
     26  CA        31.6330    8.0620    2.6050 C.3    36  LEU36       0.1693
     27  C         31.1930    7.6880    4.0290 C.2    36  LEU36       0.2592
     28  O         30.8720    8.5580    4.8390 O.2    36  LEU36      -0.2718
     29  CB        30.4690    7.8410    1.6250 C.3    36  LEU36       0.0284
     30  CG        29.1580    8.5690    1.9450 C.3    36  LEU36       0.0019
     31  CD1       29.3960   10.0840    1.9890 C.3    36  LEU36       0.0001
     32  CD2       28.1120    8.2140    0.9010 C.3    36  LEU36       0.0001
     33  N         31.1880    6.3910    4.3230 N.am   37  GLY37      -0.1957
     34  CA        30.8040    5.9270    5.6430 C.3    37  GLY37       0.1869
     35  C         31.6830    6.5230    6.7270 C.2    37  GLY37       0.2309
     36  O         31.1930    6.9260    7.7760 O.2    37  GLY37      -0.2863
     37  N         30.7580   10.2280    7.0970 N.3    40  GLN40      -0.1245
     38  CA        29.4780   10.3630    7.7790 C.3    40  GLN40       0.1566
     39  C         29.6430   10.0750    9.2930 C.2    40  GLN40       0.2260
     40  O         29.0210   10.7240   10.1280 O.2    40  GLN40      -0.2867
     41  CB        28.4730    9.3860    7.1660 C.3    40  GLN40       0.0367
     42  CG        27.0400    9.8660    7.1990 C.3    40  GLN40       0.0905
     43  CD        26.7660   10.9470    6.1810 C.2    40  GLN40       0.2608
     44  OE1       26.9500   10.7440    4.9810 O.2    40  GLN40      -0.2717
     45  NE2       26.3160   12.1030    6.6510 N.am   40  GLN40      -0.0878
     46  N         25.3940    3.9790   14.8000 N.3    70  TRP70      -0.1227
     47  CA        25.9290    4.5750   13.5850 C.3    70  TRP70       0.1737
     48  C         25.2490    4.1120   12.2570 C.2    70  TRP70       0.2595
     49  O         24.8420    4.9390   11.4400 O.2    70  TRP70      -0.2718
     50  CB        27.4320    4.3110   13.5210 C.3    70  TRP70       0.0564
     51  CG        28.0520    4.6020   12.1950 C.ar   70  TRP70       0.0003
     52  CD1       28.0640    5.7930   11.5320 C.ar   70  TRP70       0.0946
     53  CD2       28.7700    3.6790   11.3760 C.ar   70  TRP70       0.0152
     54  NE1       28.7500    5.6700   10.3430 N.ar   70  TRP70      -0.2442
     55  CE2       29.1930    4.3820   10.2230 C.ar   70  TRP70       0.0810
     56  CE3       29.0980    2.3230   11.5020 C.ar   70  TRP70       0.0012
     57  CZ2       29.9280    3.7740    9.2020 C.ar   70  TRP70       0.0191
     58  CZ3       29.8270    1.7180   10.4860 C.ar   70  TRP70       0.0001
     59  CH2       30.2340    2.4460    9.3490 C.ar   70  TRP70       0.0015
     60  N         25.1470    2.8020   12.0640 N.am   71  MET71      -0.1979
     61  CA        24.5370    2.2420   10.8610 C.3    71  MET71       0.1605
     62  C         23.0410    2.6110   10.7210 C.2    71  MET71       0.2287
     63  O         22.6070    3.0280    9.6640 O.2    71  MET71      -0.2864
     64  CB        24.6810    0.7180   10.8570 C.3    71  MET71       0.0413
     65  CG        24.3150    0.0710    9.5270 C.3    71  MET71       0.0598
     66  SD        25.3890    0.6910    8.2090 S.3    71  MET71      -0.1393
     67  CE        26.8920   -0.1400    8.6920 C.3    71  MET71       0.0692
     68  N         22.6200    6.1780    9.7710 N.3    74  MET74      -0.1230
     69  CA        22.9400    6.4350    8.3700 C.3    74  MET74       0.1702
     70  C         21.8300    5.9530    7.4580 C.2    74  MET74       0.2592
     71  O         21.5590    6.5610    6.4180 O.2    74  MET74      -0.2718
     72  CB        24.2390    5.7410    7.9610 C.3    74  MET74       0.0401
     73  CG        25.5130    6.3430    8.5610 C.3    74  MET74       0.0596
     74  SD        26.8940    5.9730    7.4680 S.3    74  MET74      -0.1393
     75  CE        26.9140    4.2030    7.5500 C.3    74  MET74       0.0692
     76  N         21.2100    4.8380    7.8310 N.am   75  VAL75      -0.1980
     77  CA        20.1200    4.2860    7.0520 C.3    75  VAL75       0.1595
     78  C         18.9690    5.2650    7.0600 C.2    75  VAL75       0.2287
     79  O         18.4430    5.6260    6.0100 O.2    75  VAL75      -0.2864
     80  CB        19.6260    2.9410    7.6420 C.3    75  VAL75       0.0276
     81  CG1       18.3610    2.4850    6.9220 C.3    75  VAL75       0.0022
     82  CG2       20.7100    1.8820    7.5160 C.3    75  VAL75       0.0022
     83  N         19.7330    8.6110    5.2460 N.3    78  MET78      -0.1245
     84  CA        19.8480    8.3730    3.8150 C.3    78  MET78       0.1570
     85  C         18.4700    8.0950    3.2200 C.2    78  MET78       0.2261
     86  O         18.1960    8.4490    2.0800 O.2    78  MET78      -0.2867
     87  CB        20.7920    7.2030    3.5560 C.3    78  MET78       0.0387
     88  CG        21.2460    7.0830    2.1230 C.3    78  MET78       0.0595
     89  SD        20.1710    6.0700    1.1170 S.3    78  MET78      -0.1393
     90  CE        20.6830    4.3750    1.6780 C.3    78  MET78       0.0692
     91  N         17.0850   11.5470    2.7800 N.3    81  ARG81      -0.1245
     92  CA        17.6820   12.2430    1.6480 C.3    81  ARG81       0.1563
     93  C         17.0900   11.7290    0.3450 C.2    81  ARG81       0.2260
     94  O         16.8280   12.5010   -0.5740 O.2    81  ARG81      -0.2867
     95  CB        19.1990   12.0250    1.6080 C.3    81  ARG81       0.0307
     96  CG        19.9890   12.8310    2.6170 C.3    81  ARG81       0.0489
     97  CD        21.4580   12.9410    2.1920 C.3    81  ARG81       0.2205
     98  NE        22.1140   11.6330    2.1210 N.pl3  81  ARG81      -0.0865
     99  CZ        22.4440   10.8930    3.1770 C.cat  81  ARG81       0.5346
    100  NH1       22.1890   11.3180    4.4090 N.pl3  81  ARG81       0.1354
    101  NH2       23.0310    9.7200    3.0000 N.pl3  81  ARG81       0.1354
    102  N         22.9040    8.1270   -1.4440 N.3    93  PHE93      -0.1241
    103  CA        23.9420    8.0010   -0.4260 C.3    93  PHE93       0.1605
    104  C         24.6700    9.3520   -0.3060 C.2    93  PHE93       0.2264
    105  O         24.9740    9.8120    0.7960 O.2    93  PHE93      -0.2867
    106  CB        24.9530    6.9050   -0.8010 C.3    93  PHE93       0.0534
    107  CG        24.4270    5.5060   -0.6620 C.ar   93  PHE93      -0.0203
    108  CD1       23.8490    4.8500   -1.7420 C.ar   93  PHE93      -0.0042
    109  CD2       24.5560    4.8220    0.5420 C.ar   93  PHE93      -0.0042
    110  CE1       23.4100    3.5220   -1.6290 C.ar   93  PHE93      -0.0003
    111  CE2       24.1210    3.4970    0.6680 C.ar   93  PHE93      -0.0003
    112  CZ        23.5470    2.8450   -0.4220 C.ar   93  PHE93      -0.0000
    113  N         24.6290   -5.4590   -2.8580 N.3   109  MET109     -0.1245
    114  CA        23.8060   -5.1390   -1.6960 C.3   109  MET109      0.1570
    115  C         22.3710   -4.9190   -2.1060 C.2   109  MET109      0.2261
    116  O         21.6400   -4.2000   -1.4300 O.2   109  MET109     -0.2867
    117  CB        24.2890   -3.8570   -1.0340 C.3   109  MET109      0.0387
    118  CG        25.6270   -3.9330   -0.3650 C.3   109  MET109      0.0595
    119  SD        25.8400   -2.4600    0.6420 S.3   109  MET109     -0.1393
    120  CE        25.9770   -1.2460   -0.6280 C.3   109  MET109      0.0692
    121  N         16.1470   -0.5980    2.3100 N.3   116  MET116     -0.1245
    122  CA        16.3440    0.8270    2.5450 C.3   116  MET116      0.1570
    123  C         15.4510    1.7060    1.6740 C.2   116  MET116      0.2261
    124  O         14.8780    2.6830    2.1510 O.2   116  MET116     -0.2867
    125  CB        17.8190    1.2010    2.3340 C.3   116  MET116      0.0387
    126  CG        18.7570    0.4990    3.3040 C.3   116  MET116      0.0595
    127  SD        20.4630    1.0690    3.2490 S.3   116  MET116     -0.1393
    128  CE        21.0960    0.0640    1.9370 C.3   116  MET116      0.0692
    129  N         22.7390   -4.7830    7.2670 N.3   202  LEU202     -0.1245
    130  CA        23.8900   -3.9890    6.8490 C.3   202  LEU202      0.1561
    131  C         25.1010   -4.3220    7.7070 C.2   202  LEU202      0.2260
    132  O         26.2230   -4.3150    7.2220 O.2   202  LEU202     -0.2867
    133  CB        23.5630   -2.4950    6.9480 C.3   202  LEU202      0.0270
    134  CG        22.6360   -1.9590    5.8530 C.3   202  LEU202      0.0019
    135  CD1       22.1920   -0.5610    6.1840 C.3   202  LEU202      0.0001
    136  CD2       23.3600   -1.9800    4.5320 C.3   202  LEU202      0.0001
    137  N         26.3990   -7.6530    6.5010 N.3   205  PHE205     -0.1227
    138  CA        27.0830   -7.4560    5.2320 C.3   205  PHE205      0.1736
    139  C         28.4250   -6.7350    5.4260 C.2   205  PHE205      0.2595
    140  O         29.4140   -7.0680    4.7730 O.2   205  PHE205     -0.2718
    141  CB        26.1930   -6.6690    4.2600 C.3   205  PHE205      0.0547
    142  CG        26.8650   -6.3380    2.9530 C.ar  205  PHE205     -0.0202
    143  CD1       27.6610   -5.2090    2.8300 C.ar  205  PHE205     -0.0042
    144  CD2       26.7230   -7.1750    1.8530 C.ar  205  PHE205     -0.0042
    145  CE1       28.3100   -4.9150    1.6350 C.ar  205  PHE205     -0.0003
    146  CE2       27.3680   -6.8920    0.6470 C.ar  205  PHE205     -0.0003
    147  CZ        28.1630   -5.7590    0.5410 C.ar  205  PHE205     -0.0000
    148  N         28.4560   -5.7530    6.3190 N.am  206  ALA206     -0.1980
    149  CA        29.6830   -5.0080    6.5800 C.3   206  ALA206      0.1597
    150  C         30.7580   -5.9360    7.1780 C.2   206  ALA206      0.2287
    151  O         31.9230   -5.8920    6.7700 O.2   206  ALA206     -0.2864
    152  CB        29.4030   -3.8520    7.5270 C.3   206  ALA206      0.0319
    153  N         32.0870   -8.4520    4.5770 N.3   209  LEU209     -0.1245
    154  CA        32.9470   -7.7700    3.6230 C.3   209  LEU209      0.1561
    155  C         34.3240   -7.4320    4.2300 C.2   209  LEU209      0.2260
    156  O         35.3440   -7.6250    3.5840 O.2   209  LEU209     -0.2867
    157  CB        32.2670   -6.4990    3.1090 C.3   209  LEU209      0.0270
    158  CG        32.9760   -5.7420    1.9770 C.3   209  LEU209      0.0019
    159  CD1       33.3660   -6.7010    0.8480 C.3   209  LEU209      0.0001
    160  CD2       32.0570   -4.6460    1.4560 C.3   209  LEU209      0.0001
    161  N         39.0920   -0.2820    3.7960 N.3   220  PHE220     -0.1241
    162  CA        38.2460    0.0590    4.9300 C.3   220  PHE220      0.1605
    163  C         38.9560    1.1200    5.7460 C.2   220  PHE220      0.2264
    164  O         40.0480    0.8940    6.2530 O.2   220  PHE220     -0.2867
    165  CB        37.9650   -1.1690    5.8080 C.3   220  PHE220      0.0534
    166  CG        36.8260   -2.0220    5.3150 C.ar  220  PHE220     -0.0203
    167  CD1       37.0030   -2.9130    4.2600 C.ar  220  PHE220     -0.0042
    168  CD2       35.5630   -1.9080    5.8880 C.ar  220  PHE220     -0.0042
    169  CE1       35.9300   -3.6820    3.7780 C.ar  220  PHE220     -0.0003
    170  CE2       34.4830   -2.6670    5.4170 C.ar  220  PHE220     -0.0003
    171  CZ        34.6680   -3.5550    4.3610 C.ar  220  PHE220     -0.0000
    172  N         36.0680    3.1090   10.6750 N.3   224  MET224     -0.1245
    173  CA        34.9910    2.2130   10.2800 C.3   224  MET224      0.1570
    174  C         35.4120    0.7390   10.5040 C.2   224  MET224      0.2261
    175  O         34.6180   -0.0790   10.9600 O.2   224  MET224     -0.2867
    176  CB        34.6360    2.4450    8.8030 C.3   224  MET224      0.0387
    177  CG        33.3560    1.7530    8.3630 C.3   224  MET224      0.0595
    178  SD        32.9670    1.9400    6.6070 S.3   224  MET224     -0.1393
    179  CE        33.3690    0.3580    6.0320 C.3   224  MET224      0.0692
    180  N         33.5410   -2.0470   12.9320 N.3   228  ILE228     -0.1245
    181  CA        33.0610   -3.2780   12.3260 C.3   228  ILE228      0.1561
    182  C         33.6190   -4.5660   12.9580 C.2   228  ILE228      0.2260
    183  O         32.9320   -5.5910   12.9960 O.2   228  ILE228     -0.2867
    184  CB        33.3560   -3.2760   10.8050 C.3   228  ILE228      0.0252
    185  CG1       32.5590   -2.1190   10.1910 C.3   228  ILE228      0.0019
    186  CG2       32.9850   -4.6080   10.1720 C.3   228  ILE228      0.0019
    187  CD1       32.8230   -1.8770    8.7340 C.3   228  ILE228      0.0001
@<TRIPOS>BOND
     1     1     2    1
     2   113   114    1
     3     8     6    1
     4   115   114    1
     5   115   116    2
     6     2     5    1
     7     2     3    1
     8     5     6    1
     9   108   110   ar
    10   108   107   ar
    11   114   117    1
    12     6     7    1
    13   110   112   ar
    14     3     4    2
    15   102   103    1
    16    15    14    1
    17   117   118    1
    18    14    16    1
    19    14    13    1
    20     9    10    1
    21   106   107    1
    22   106   103    1
    23   107   109   ar
    24   120   119    1
    25    94    93    2
    26   103   104    1
    27   112   111   ar
    28   118   119    1
    29   104   105    2
    30    13    10    1
    31    10    11    1
    32    93    92    1
    33   147   146   ar
    34   147   145   ar
    35   109   111   ar
    36   146   144   ar
    37   159   158    1
    38    32    30    1
    39    89    90    1
    40    89    88    1
    41   160   158    1
    42    11    17   am
    43    11    12    2
    44    95    92    1
    45    95    96    1
    46    29    30    1
    47    29    26    1
    48    17    18    1
    49   145   143   ar
    50    92    91    1
    51   123   124    2
    52   123   122    1
    53   144   142   ar
    54   128   127    1
    55    30    31    1
    56   158   157    1
    57    86    85    2
    58    98    97    1
    59    98    99    2
    60    88    87    1
    61    97    96    1
    62    25    26    1
    63   121   122    1
    64   125   122    1
    65   125   126    1
    66    23    22    2
    67    26    27    1
    68    22    21    1
    69    22    24   am
    70    21    18    1
    71   143   142   ar
    72    18    19    1
    73   142   141    1
    74   101    99    1
    75   157   154    1
    76    99   100    1
    77    19    20    2
    78    85    84    1
    79   127   126    1
    80    87    84    1
    81   156   155    2
    82   154   155    1
    83   154   153    1
    84   169   167   ar
    85   169   171   ar
    86   161   162    1
    87    84    83    1
    88    27    33   am
    89    27    28    2
    90   141   138    1
    91   167   166   ar
    92    33    34    1
    93   171   170   ar
    94   136   134    1
    95   140   139    2
    96   162   163    1
    97   162   165    1
    98    44    43    2
    99   138   139    1
   100   138   137    1
   101   166   165    1
   102   166   168   ar
   103   170   168   ar
   104   139   148   am
   105    34    35    1
   106   163   164    2
   107   134   135    1
   108   134   133    1
   109    79    78    2
   110   179   178    1
   111    43    45   am
   112    43    42    1
   113   148   149    1
   114    71    70    2
   115   149   150    1
   116   149   152    1
   117   178   177    1
   118    35    36    2
   119   151   150    2
   120   130   133    1
   121   130   129    1
   122   130   131    1
   123    81    80    1
   124    77    78    1
   125    77    80    1
   126    77    76    1
   127    37    38    1
   128    41    42    1
   129    41    38    1
   130   132   131    2
   131    70    76   am
   132    70    69    1
   133    74    75    1
   134    74    73    1
   135    82    80    1
   136    38    39    1
   137    72    69    1
   138    72    73    1
   139    66    67    1
   140    66    65    1
   141   177   176    1
   142    69    68    1
   143   187   185    1
   144   176   173    1
   145    57    59   ar
   146    57    55   ar
   147    39    40    2
   148    59    58   ar
   149    65    64    1
   150    63    62    2
   151   186   184    1
   152   185   184    1
   153    55    54   ar
   154    55    53   ar
   155   173   174    1
   156   173   172    1
   157    54    52   ar
   158    58    56   ar
   159   174   175    2
   160    62    61    1
   161   184   181    1
   162    64    61    1
   163    61    60    1
   164    53    56   ar
   165    53    51   ar
   166    49    48    2
   167    52    51   ar
   168    60    48   am
   169    51    50    1
   170    48    47    1
   171   181   180    1
   172   181   182    1
   173   182   183    2
   174    50    47    1
   175    47    46    1
