@<TRIPOS>MOLECULE
tmp/1xnxB00.pdb
 186 178 0 0 0
SMALL
GASTEIGER

@<TRIPOS>ATOM
      1  N          9.3540   61.2350   70.5340 N.3    23  PHE23      -0.1241
      2  CA        10.3570   61.3370   69.4860 C.3    23  PHE23       0.1605
      3  C          9.7310   60.8190   68.1930 C.2    23  PHE23       0.2264
      4  O          9.9800   61.3430   67.1090 O.2    23  PHE23      -0.2867
      5  CB        11.6140   60.5330   69.8600 C.3    23  PHE23       0.0534
      6  CG        12.3550   61.0690   71.0760 C.ar   23  PHE23      -0.0203
      7  CD1       13.5320   60.4530   71.5240 C.ar   23  PHE23      -0.0042
      8  CD2       11.8760   62.1730   71.7840 C.ar   23  PHE23      -0.0042
      9  CE1       14.2160   60.9290   72.6620 C.ar   23  PHE23      -0.0003
     10  CE2       12.5520   62.6550   72.9200 C.ar   23  PHE23      -0.0003
     11  CZ        13.7200   62.0310   73.3570 C.ar   23  PHE23      -0.0000
     12  N         17.5100   64.3400   64.8270 N.3    52  PHE52      -0.1241
     13  CA        18.2620   64.6230   66.0470 C.3    52  PHE52       0.1605
     14  C         18.1550   66.0870   66.4340 C.2    52  PHE52       0.2264
     15  O         18.1820   66.4210   67.6180 O.2    52  PHE52      -0.2867
     16  CB        19.7390   64.2530   65.8830 C.3    52  PHE52       0.0534
     17  CG        20.0090   62.7670   65.8530 C.ar   52  PHE52      -0.0203
     18  CD1       19.1720   61.8720   66.5140 C.ar   52  PHE52      -0.0042
     19  CD2       21.1530   62.2720   65.2210 C.ar   52  PHE52      -0.0042
     20  CE1       19.4770   60.5050   66.5470 C.ar   52  PHE52      -0.0003
     21  CE2       21.4650   60.9100   65.2520 C.ar   52  PHE52      -0.0003
     22  CZ        20.6290   60.0280   65.9140 C.ar   52  PHE52      -0.0000
     23  N         14.4830   66.6390   67.9090 N.3    55  ILE55      -0.1231
     24  CA        14.3310   66.1060   69.2620 C.3    55  ILE55       0.1692
     25  C         15.2640   66.7620   70.2820 C.2    55  ILE55       0.2592
     26  O         14.9760   66.7620   71.4870 O.2    55  ILE55      -0.2718
     27  CB        14.5200   64.5620   69.3160 C.3    55  ILE55       0.0266
     28  CG1       15.9800   64.1890   69.0660 C.3    55  ILE55       0.0019
     29  CG2       13.5880   63.8930   68.3050 C.3    55  ILE55       0.0020
     30  CD1       16.2770   62.7280   69.3350 C.3    55  ILE55       0.0001
     31  N         16.3780   67.3230   69.8100 N.am   56  ASN56      -0.1974
     32  CA        17.2970   67.9990   70.7230 C.3    56  ASN56       0.1688
     33  C         16.5470   69.2270   71.2120 C.2    56  ASN56       0.2292
     34  O         16.5690   69.5490   72.3980 O.2    56  ASN56      -0.2864
     35  CB        18.5760   68.4400   70.0100 C.3    56  ASN56       0.1181
     36  CG        19.5640   69.1320   70.9490 C.2    56  ASN56       0.2629
     37  OD1       20.1980   70.1170   70.5770 O.2    56  ASN56      -0.2716
     38  ND2       19.7060   68.6110   72.1620 N.am   56  ASN56      -0.0877
     39  N         13.5560   68.2500   73.5700 N.3    59  MET59      -0.1245
     40  CA        14.0470   67.8880   74.8900 C.3    59  MET59       0.1570
     41  C         14.4000   69.1230   75.7050 C.2    59  MET59       0.2261
     42  O         14.0230   69.2320   76.8710 O.2    59  MET59      -0.2867
     43  CB        15.2670   66.9670   74.7750 C.3    59  MET59       0.0387
     44  CG        14.9280   65.5290   74.3850 C.3    59  MET59       0.0595
     45  SD        16.3810   64.4930   74.0250 S.3    59  MET59      -0.1393
     46  CE        16.6180   63.6940   75.5780 C.3    59  MET59       0.0692
     47  N         21.9870   70.3320   78.6550 N.3    90  VAL90      -0.1245
     48  CA        22.6010   69.1570   78.0520 C.3    90  VAL90       0.1561
     49  C         22.8090   68.0690   79.0970 C.2    90  VAL90       0.2260
     50  O         22.2720   66.9660   78.9820 O.2    90  VAL90      -0.2867
     51  CB        23.9740   69.5000   77.4440 C.3    90  VAL90       0.0252
     52  CG1       24.4450   68.3600   76.5500 C.3    90  VAL90       0.0019
     53  CG2       23.8910   70.8100   76.6810 C.3    90  VAL90       0.0019
     54  N         19.6870   66.4240   80.1740 N.3    93  LEU93      -0.1231
     55  CA        19.2280   65.6030   79.0590 C.3    93  LEU93       0.1693
     56  C         19.7520   64.1660   79.0970 C.2    93  LEU93       0.2592
     57  O         18.9870   63.2180   78.9340 O.2    93  LEU93      -0.2718
     58  CB        19.6260   66.2610   77.7380 C.3    93  LEU93       0.0284
     59  CG        19.0070   65.6350   76.4880 C.3    93  LEU93       0.0019
     60  CD1       18.5820   66.7440   75.5330 C.3    93  LEU93       0.0001
     61  CD2       19.9970   64.6750   75.8300 C.3    93  LEU93       0.0001
     62  N         21.0530   64.0100   79.3190 N.am   94  HIS94      -0.1976
     63  CA        21.6640   62.6910   79.3660 C.3    94  HIS94       0.1656
     64  C         21.3200   61.9100   80.6410 C.2    94  HIS94       0.2291
     65  O         21.2080   60.6790   80.6200 O.2    94  HIS94      -0.2864
     66  CB        23.1850   62.8230   79.1950 C.3    94  HIS94       0.0771
     67  CG        23.6140   62.9600   77.7650 C.ar   94  HIS94       0.0820
     68  ND1       23.7940   61.8740   76.9340 N.ar   94  HIS94      -0.2267
     69  CD2       23.8380   64.0550   77.0000 C.ar   94  HIS94       0.1154
     70  CE1       24.1080   62.2940   75.7220 C.ar   94  HIS94       0.1986
     71  NE2       24.1400   63.6130   75.7340 N.ar   94  HIS94      -0.2212
     72  N         17.9120   60.9070   79.9590 N.3    97  LEU97      -0.1245
     73  CA        17.9310   59.9930   78.8340 C.3    97  LEU97       0.1561
     74  C         18.3250   58.5960   79.3160 C.2    97  LEU97       0.2260
     75  O         17.8470   57.5820   78.8010 O.2    97  LEU97      -0.2867
     76  CB        18.9410   60.4790   77.7940 C.3    97  LEU97       0.0270
     77  CG        18.6630   60.2980   76.2920 C.3    97  LEU97       0.0019
     78  CD1       19.9780   60.5010   75.5330 C.3    97  LEU97       0.0001
     79  CD2       18.1010   58.9200   75.9990 C.3    97  LEU97       0.0001
     80  N         18.9870   52.7110   73.0900 N.3   108  PHE108     -0.1241
     81  CA        18.1300   53.5840   73.8730 C.3   108  PHE108      0.1605
     82  C         16.7350   53.3360   73.3190 C.2   108  PHE108      0.2264
     83  O         16.4970   53.5130   72.1190 O.2   108  PHE108     -0.2867
     84  CB        18.5020   55.0610   73.7020 C.3   108  PHE108      0.0534
     85  CG        19.7780   55.4550   74.3900 C.ar  108  PHE108     -0.0203
     86  CD1       21.0130   55.2430   73.7760 C.ar  108  PHE108     -0.0042
     87  CD2       19.7490   56.0420   75.6550 C.ar  108  PHE108     -0.0042
     88  CE1       22.2000   55.6070   74.4050 C.ar  108  PHE108     -0.0003
     89  CE2       20.9360   56.4100   76.2920 C.ar  108  PHE108     -0.0003
     90  CZ        22.1660   56.1900   75.6590 C.ar  108  PHE108     -0.0000
     91  N         17.4920   53.8180   69.4440 N.3   115  TYR115     -0.1227
     92  CA        18.6800   54.5700   69.0430 C.3   115  TYR115      0.1736
     93  C         19.9870   53.8580   69.4020 C.2   115  TYR115      0.2595
     94  O         20.1350   53.3040   70.4940 O.2   115  TYR115     -0.2718
     95  CB        18.6890   55.9660   69.6730 C.3   115  TYR115      0.0548
     96  CG        17.4860   56.8250   69.3510 C.ar  115  TYR115     -0.0200
     97  CD1       16.2950   56.6850   70.0630 C.ar  115  TYR115     -0.0009
     98  CD2       17.5540   57.8120   68.3680 C.ar  115  TYR115     -0.0009
     99  CE1       15.2100   57.5110   69.8100 C.ar  115  TYR115      0.0417
    100  CE2       16.4710   58.6450   68.1060 C.ar  115  TYR115      0.0417
    101  CZ        15.3070   58.4900   68.8290 C.ar  115  TYR115      0.1957
    102  OH        14.2390   59.3150   68.5760 O.3   115  TYR115     -0.2866
    103  N         20.9380   53.9020   68.4720 N.am  116  LYS116     -0.1966
    104  CA        22.2390   53.2670   68.6420 C.3   116  LYS116      0.1728
    105  C         23.3440   54.2940   68.4640 C.2   116  LYS116      0.2616
    106  O         23.1240   55.3520   67.8730 O.2   116  LYS116     -0.2715
    107  CB        22.4180   52.1750   67.5950 C.3   116  LYS116      0.0311
    108  CG        21.2570   51.2080   67.5300 C.3   116  LYS116      0.0038
    109  CD        21.4080   50.2330   66.3920 C.3   116  LYS116      0.0206
    110  CE        20.3140   49.1950   66.4600 C.3   116  LYS116      0.1093
    111  NZ        20.4200   48.3920   67.7120 N.3   116  LYS116     -0.1314
    112  N         24.5310   53.9880   68.9800 N.am  117  MET117     -0.1977
    113  CA        25.6660   54.8890   68.8260 C.3   117  MET117      0.1605
    114  C         25.9160   55.0110   67.3240 C.2   117  MET117      0.2287
    115  O         26.2010   56.0960   66.8250 O.2   117  MET117     -0.2864
    116  CB        26.9080   54.3280   69.5300 C.3   117  MET117      0.0413
    117  CG        26.7990   54.2500   71.0620 C.3   117  MET117      0.0598
    118  SD        26.6390   55.8690   71.8630 S.3   117  MET117     -0.1393
    119  CE        28.2990   56.4910   71.6930 C.3   117  MET117      0.0692
    120  N         24.0880   55.3460   65.0750 N.3   119  ASP119     -0.1225
    121  CA        23.2700   56.4390   64.5740 C.3   119  ASP119      0.1805
    122  C         23.9550   57.8040   64.7550 C.2   119  ASP119      0.2597
    123  O         23.9410   58.6450   63.8580 O.2   119  ASP119     -0.2718
    124  CB        21.9100   56.4100   65.2830 C.3   119  ASP119      0.1424
    125  CG        21.1590   55.1070   65.0550 C.2   119  ASP119      0.3668
    126  OD1       20.2000   54.8230   65.8040 O.co2 119  ASP119     -0.2456
    127  OD2       21.5140   54.3610   64.1200 O.co2 119  ASP119     -0.2456
    128  N         24.5520   58.0260   65.9170 N.am  120  ALA120     -0.1979
    129  CA        25.2240   59.2890   66.1560 C.3   120  ALA120      0.1597
    130  C         26.4580   59.3030   65.2640 C.2   120  ALA120      0.2287
    131  O         26.8960   60.3560   64.7880 O.2   120  ALA120     -0.2864
    132  CB        25.6160   59.4020   67.6140 C.3   120  ALA120      0.0319
    133  N         28.8300   62.4890   64.1120 N.3   125  PHE125     -0.1241
    134  CA        29.4730   62.9370   65.3400 C.3   125  PHE125      0.1605
    135  C         30.8020   62.1970   65.4590 C.2   125  PHE125      0.2264
    136  O         30.9770   61.1220   64.8810 O.2   125  PHE125     -0.2867
    137  CB        28.5950   62.6610   66.5690 C.3   125  PHE125      0.0534
    138  CG        27.3740   63.5440   66.6590 C.ar  125  PHE125     -0.0203
    139  CD1       26.2170   63.2440   65.9340 C.ar  125  PHE125     -0.0042
    140  CD2       27.3770   64.6760   67.4690 C.ar  125  PHE125     -0.0042
    141  CE1       25.0820   64.0580   66.0130 C.ar  125  PHE125     -0.0003
    142  CE2       26.2470   65.4990   67.5570 C.ar  125  PHE125     -0.0003
    143  CZ        25.0980   65.1880   66.8290 C.ar  125  PHE125     -0.0000
    144  N         33.8930   61.8380   71.3470 N.3   129  PHE129     -0.1227
    145  CA        32.7050   62.4270   71.9470 C.3   129  PHE129      0.1736
    146  C         31.7360   61.3000   72.2930 C.2   129  PHE129      0.2595
    147  O         31.3780   61.1040   73.4590 O.2   129  PHE129     -0.2718
    148  CB        32.0350   63.4060   70.9750 C.3   129  PHE129      0.0547
    149  CG        30.7300   63.9660   71.4790 C.ar  129  PHE129     -0.0202
    150  CD1       30.6520   64.5680   72.7300 C.ar  129  PHE129     -0.0042
    151  CD2       29.5810   63.9000   70.6970 C.ar  129  PHE129     -0.0042
    152  CE1       29.4540   65.0960   73.1950 C.ar  129  PHE129     -0.0003
    153  CE2       28.3690   64.4270   71.1510 C.ar  129  PHE129     -0.0003
    154  CZ        28.3050   65.0260   72.4030 C.ar  129  PHE129     -0.0000
    155  N         31.3230   60.5580   71.2700 N.am  130  LEU130     -0.1980
    156  CA        30.3990   59.4530   71.4590 C.3   130  LEU130      0.1596
    157  C         30.9100   58.5290   72.5500 C.2   130  LEU130      0.2287
    158  O         30.1670   58.1570   73.4560 O.2   130  LEU130     -0.2864
    159  CB        30.2140   58.6920   70.1430 C.3   130  LEU130      0.0297
    160  CG        29.5390   59.5410   69.0580 C.3   130  LEU130      0.0022
    161  CD1       29.2370   58.7080   67.8160 C.3   130  LEU130      0.0001
    162  CD2       28.2610   60.1300   69.6280 C.3   130  LEU130      0.0001
    163  N         30.0950   59.7230   75.8310 N.3   133  ILE133     -0.1245
    164  CA        28.6560   59.5490   76.0110 C.3   133  ILE133      0.1561
    165  C         28.3020   58.1020   76.3900 C.2   133  ILE133      0.2260
    166  O         27.5600   57.8590   77.3430 O.2   133  ILE133     -0.2867
    167  CB        27.8890   59.9390   74.7160 C.3   133  ILE133      0.0252
    168  CG1       28.0300   61.4410   74.4480 C.3   133  ILE133      0.0019
    169  CG2       26.4330   59.5640   74.8410 C.3   133  ILE133      0.0019
    170  CD1       27.5610   62.3240   75.5870 C.3   133  ILE133      0.0001
    171  N         27.2170   69.9750   69.1300 N.3   221  LEU221     -0.1245
    172  CA        25.8710   69.9440   69.6910 C.3   221  LEU221      0.1561
    173  C         25.1260   71.1520   69.1220 C.2   221  LEU221      0.2260
    174  O         23.8960   71.1990   69.1250 O.2   221  LEU221     -0.2867
    175  CB        25.9170   70.0230   71.2260 C.3   221  LEU221      0.0270
    176  CG        26.3950   68.8060   72.0360 C.3   221  LEU221      0.0019
    177  CD1       27.8680   68.5420   71.7820 C.3   221  LEU221      0.0001
    178  CD2       26.1670   69.0640   73.5190 C.3   221  LEU221      0.0001
    179  N         23.2750   71.1710   64.9840 N.3   224  LEU224     -0.1245
    180  CA        21.8930   70.7180   64.9240 C.3   224  LEU224      0.1561
    181  C         20.9210   71.8670   64.6760 C.2   224  LEU224      0.2260
    182  O         20.8040   72.7800   65.4940 O.2   224  LEU224     -0.2867
    183  CB        21.5230   70.0200   66.2290 C.3   224  LEU224      0.0270
    184  CG        22.3390   68.7940   66.6220 C.3   224  LEU224      0.0019
    185  CD1       21.8460   68.2620   67.9660 C.3   224  LEU224      0.0001
    186  CD2       22.2120   67.7360   65.5400 C.3   224  LEU224      0.0001
@<TRIPOS>BOND
     1   123   122    2
     2   133   134    1
     3   127   125   ar
     4   121   122    1
     5   121   120    1
     6   121   124    1
     7   181   180    1
     8   181   182    2
     9   122   128   am
    10   131   130    2
    11    12    13    1
    12   136   135    2
    13   180   179    1
    14   180   183    1
    15   125   124    1
    16   125   126   ar
    17    19    21   ar
    18    19    17   ar
    19    21    22   ar
    20   130   129    1
    21   134   135    1
    22   134   137    1
    23   186   184    1
    24    17    16    1
    25    17    18   ar
    26    16    13    1
    27    22    20   ar
    28   128   129    1
    29   139   141   ar
    30   139   138   ar
    31   141   143   ar
    32    13    14    1
    33   129   132    1
    34   183   184    1
    35   109   110    1
    36   109   108    1
    37    14    15    2
    38   110   111    1
    39    18    20   ar
    40   137   138    1
    41   184   185    1
    42   138   140   ar
    43   115   114    2
    44   143   142   ar
    45     4     3    2
    46   114   113    1
    47   140   142   ar
    48   108   107    1
    49   107   104    1
    50   161   160    1
    51   106   105    2
    52    23    24    1
    53   100    98   ar
    54   100   101   ar
    55     3     2    1
    56    29    27    1
    57    98    96   ar
    58   105   104    1
    59   105   112   am
    60   103   104    1
    61   103    93   am
    62   102   101    1
    63   113   112    1
    64   113   116    1
    65   101    99   ar
    66    92    93    1
    67    92    91    1
    68    92    95    1
    69   160   162    1
    70   160   159    1
    71    28    27    1
    72    28    30    1
    73   173   174    2
    74   173   172    1
    75   171   172    1
    76    24    27    1
    77    24    25    1
    78    96    95    1
    79    96    97   ar
    80    93    94    2
    81     2     5    1
    82     2     1    1
    83   116   117    1
    84   172   175    1
    85    99    97   ar
    86    31    25   am
    87    31    32    1
    88     5     6    1
    89    35    32    1
    90    35    36    1
    91   159   156    1
    92    25    26    2
    93    37    36    2
    94   151   153   ar
    95   151   149   ar
    96    32    33    1
    97    36    38   am
    98   148   149    1
    99   148   145    1
   100   117   118    1
   101     6     7   ar
   102     6     8   ar
   103   153   154   ar
   104    33    34    2
   105   175   176    1
   106   155   156    1
   107   155   146   am
   108   144   145    1
   109   156   157    1
   110   149   150   ar
   111     7     9   ar
   112   119   118    1
   113   177   176    1
   114     8    10   ar
   115   145   146    1
   116   176   178    1
   117    83    82    2
   118   146   147    2
   119   154   152   ar
   120   157   158    2
   121     9    11   ar
   122   150   152   ar
   123    10    11   ar
   124    80    81    1
   125    82    81    1
   126    39    40    1
   127    84    81    1
   128    84    85    1
   129    86    85   ar
   130    86    88   ar
   131    45    44    1
   132    45    46    1
   133    44    43    1
   134    85    87   ar
   135    88    90   ar
   136   168   167    1
   137   168   170    1
   138   167   169    1
   139   167   164    1
   140    43    40    1
   141    40    41    1
   142    60    59    1
   143    78    77    1
   144    87    89   ar
   145    90    89   ar
   146    41    42    2
   147    70    71   ar
   148    70    68   ar
   149    71    69   ar
   150    61    59    1
   151   163   164    1
   152    79    77    1
   153   164   165    1
   154    77    76    1
   155   165   166    2
   156    59    58    1
   157    52    51    1
   158    53    51    1
   159    68    67   ar
   160    69    67   ar
   161    51    48    1
   162    58    55    1
   163    67    66    1
   164    76    73    1
   165    48    47    1
   166    48    49    1
   167    75    74    2
   168    73    74    1
   169    73    72    1
   170    57    56    2
   171    50    49    2
   172    55    56    1
   173    55    54    1
   174    56    62   am
   175    66    63    1
   176    62    63    1
   177    63    64    1
   178    65    64    2
