@<TRIPOS>MOLECULE
tmp/1xnyA01.pdb
 74 73 0 0 0
SMALL
GASTEIGER

@<TRIPOS>ATOM
      1  N         43.5190  -96.2910 -141.1750 N.3   338  CYS338     -0.1235
      2  CA        43.3250  -96.3420 -139.7340 C.3   338  CYS338      0.1677
      3  C         42.2270  -95.3870 -139.2800 C.2   338  CYS338      0.2270
      4  O         41.9590  -94.3690 -139.9200 O.2   338  CYS338     -0.2867
      5  CB        44.6210  -95.9770 -138.9990 C.3   338  CYS338      0.0956
      6  SG        45.9200  -97.2350 -139.0310 S.3   338  CYS338     -0.0801
      7  N         43.4460 -101.2310 -140.3350 N.3   368  PRO368     -0.2102
      8  CA        44.4410 -101.9960 -139.5830 C.3   368  PRO368      0.1504
      9  C         44.2990 -101.7760 -138.0910 C.2   368  PRO368      0.2576
     10  O         44.8710 -102.5140 -137.2960 O.2   368  PRO368     -0.2718
     11  CB        45.7710 -101.4760 -140.1260 C.3   368  PRO368      0.0282
     12  CG        45.4790 -100.0720 -140.4570 C.3   368  PRO368      0.0208
     13  CD        44.0860 -100.1190 -141.0670 C.3   368  PRO368      0.0893
     14  N         43.5230 -100.7620 -137.7260 N.am  369  GLY369     -0.1943
     15  CA        43.3030 -100.4530 -136.3260 C.3   369  GLY369      0.2014
     16  C         43.1640  -98.9570 -136.1310 C.2   369  GLY369      0.2638
     17  O         42.7950  -98.2370 -137.0560 O.2   369  GLY369     -0.2714
     18  N         43.4550  -98.4850 -134.9250 N.am  370  PHE370     -0.1973
     19  CA        43.3670  -97.0630 -134.6360 C.3   370  PHE370      0.1639
     20  C         44.7290  -96.3760 -134.7090 C.2   370  PHE370      0.2290
     21  O         45.7550  -96.9760 -134.3960 O.2   370  PHE370     -0.2864
     22  CB        42.7470  -96.8380 -133.2550 C.3   370  PHE370      0.0560
     23  CG        41.2540  -96.9840 -133.2350 C.ar  370  PHE370     -0.0200
     24  CD1       40.6630  -98.2400 -133.1860 C.ar  370  PHE370     -0.0042
     25  CD2       40.4350  -95.8620 -133.2900 C.ar  370  PHE370     -0.0042
     26  CE1       39.2780  -98.3790 -133.1930 C.ar  370  PHE370     -0.0003
     27  CE2       39.0480  -95.9890 -133.2980 C.ar  370  PHE370     -0.0003
     28  CZ        38.4700  -97.2530 -133.2490 C.ar  370  PHE370     -0.0000
     29  N         47.7670  -94.7310 -133.6590 N.3   372  PRO372     -0.2116
     30  CA        48.4770  -94.6280 -132.3780 C.3   372  PRO372      0.1372
     31  C         48.9430  -93.2000 -132.1120 C.2   372  PRO372      0.2244
     32  O         49.2760  -92.4690 -133.0440 O.2   372  PRO372     -0.2868
     33  CB        49.6570  -95.5840 -132.5570 C.3   372  PRO372      0.0268
     34  CG        49.1530  -96.5810 -133.5560 C.3   372  PRO372      0.0207
     35  CD        48.4450  -95.6910 -134.5470 C.3   372  PRO372      0.0892
     36  N         41.1350 -105.4660 -138.2000 N.3   408  PHE408     -0.1227
     37  CA        41.7420 -105.9500 -136.9600 C.3   408  PHE408      0.1736
     38  C         41.1890 -105.3470 -135.6750 C.2   408  PHE408      0.2596
     39  O         40.7270 -104.2070 -135.6580 O.2   408  PHE408     -0.2718
     40  CB        43.2550 -105.7090 -137.0060 C.3   408  PHE408      0.0547
     41  CG        43.9650 -106.4750 -138.0910 C.ar  408  PHE408     -0.0202
     42  CD1       44.4580 -107.7580 -137.8590 C.ar  408  PHE408     -0.0042
     43  CD2       44.1320 -105.9180 -139.3520 C.ar  408  PHE408     -0.0042
     44  CE1       45.1080 -108.4720 -138.8700 C.ar  408  PHE408     -0.0003
     45  CE2       44.7780 -106.6220 -140.3700 C.ar  408  PHE408     -0.0003
     46  CZ        45.2670 -107.9000 -140.1270 C.ar  408  PHE408     -0.0000
     47  N         41.2540 -106.1290 -134.6000 N.am  409  GLY409     -0.1942
     48  CA        40.7840 -105.6900 -133.2970 C.3   409  GLY409      0.2014
     49  C         39.4560 -104.9530 -133.2410 C.2   409  GLY409      0.2639
     50  O         38.5310 -105.2490 -134.0000 O.2   409  GLY409     -0.2714
     51  N         39.3680 -103.9920 -132.3200 N.am  410  GLY410     -0.1939
     52  CA        38.1600 -103.2020 -132.1490 C.3   410  GLY410      0.2014
     53  C         37.7180 -102.4980 -133.4180 C.2   410  GLY410      0.2638
     54  O         36.5220 -102.2800 -133.6300 O.2   410  GLY410     -0.2714
     55  N         38.6780 -102.1330 -134.2620 N.am  411  ALA411     -0.1977
     56  CA        38.3610 -101.4680 -135.5210 C.3   411  ALA411      0.1597
     57  C         37.3420 -102.3090 -136.2820 C.2   411  ALA411      0.2287
     58  O         36.3750 -101.7840 -136.8270 O.2   411  ALA411     -0.2864
     59  CB        39.6200 -101.2890 -136.3480 C.3   411  ALA411      0.0319
     60  N         42.1560 -110.6330 -134.3850 N.3   435  VAL435     -0.1231
     61  CA        42.2770 -109.8100 -133.1850 C.3   435  VAL435      0.1692
     62  C         43.3650 -108.7670 -133.3250 C.2   435  VAL435      0.2591
     63  O         43.1750 -107.6170 -132.9440 O.2   435  VAL435     -0.2718
     64  CB        42.5870 -110.6660 -131.9350 C.3   435  VAL435      0.0266
     65  CG1       42.8540 -109.7620 -130.7200 C.3   435  VAL435      0.0020
     66  CG2       41.4300 -111.5780 -131.6510 C.3   435  VAL435      0.0020
     67  N         44.5080 -109.1670 -133.8720 N.am  436  MET436     -0.1979
     68  CA        45.6240 -108.2500 -134.0470 C.3   436  MET436      0.1605
     69  C         46.6010 -108.7920 -135.0830 C.2   436  MET436      0.2287
     70  O         46.4330 -109.9070 -135.5780 O.2   436  MET436     -0.2864
     71  CB        46.3370 -108.0330 -132.7050 C.3   436  MET436      0.0413
     72  CG        47.0480 -109.2690 -132.1520 C.3   436  MET436      0.0598
     73  SD        47.6890 -109.0470 -130.4660 S.3   436  MET436     -0.1393
     74  CE        48.7900 -107.6660 -130.7070 C.3   436  MET436      0.0692
@<TRIPOS>BOND
     1     1     2    1
     2    13    12    1
     3    13     7    1
     4    12    11    1
     5    45    46   ar
     6    45    43   ar
     7     7     8    1
     8    46    44   ar
     9    11     8    1
    10     4     3    2
    11     2     3    1
    12     2     5    1
    13     8     9    1
    14    43    41   ar
    15     6     5    1
    16    44    42   ar
    17    36    37    1
    18    41    42   ar
    19    41    40    1
    20     9    14   am
    21     9    10    2
    22    14    15    1
    23    17    16    2
    24    40    37    1
    25    37    38    1
    26    58    57    2
    27    59    56    1
    28    15    16    1
    29    57    56    1
    30    16    18   am
    31    38    39    2
    32    38    47   am
    33    70    69    2
    34    56    55    1
    35    69    68    1
    36    18    19    1
    37    20    19    1
    38    20    21    2
    39    19    22    1
    40    47    48    1
    41    35    29    1
    42    35    34    1
    43    60    61    1
    44    55    53   am
    45    68    67    1
    46    68    71    1
    47    50    49    2
    48    67    62   am
    49    29    30    1
    50    54    53    2
    51    34    33    1
    52    53    52    1
    53    62    61    1
    54    62    63    2
    55    27    25   ar
    56    27    28   ar
    57    48    49    1
    58    25    23   ar
    59    22    23    1
    60    28    26   ar
    61    49    51   am
    62    23    24   ar
    63    26    24   ar
    64    61    64    1
    65    32    31    2
    66    71    72    1
    67    33    30    1
    68    30    31    1
    69    51    52    1
    70    72    73    1
    71    64    66    1
    72    64    65    1
    73    74    73    1
