@<TRIPOS>MOLECULE
tmp/1xnyA00.pdb
 92 89 0 0 0
SMALL
GASTEIGER

@<TRIPOS>ATOM
      1  N         18.4500  -46.6820 -129.3420 N.3    66  PHE66      -0.1227
      2  CA        19.5310  -46.0590 -130.0970 C.3    66  PHE66       0.1736
      3  C         19.0940  -45.6060 -131.4880 C.2    66  PHE66       0.2596
      4  O         19.7600  -45.8960 -132.4790 O.2    66  PHE66      -0.2718
      5  CB        20.6970  -47.0390 -130.2020 C.3    66  PHE66       0.0547
      6  CG        21.2540  -47.4490 -128.8700 C.ar   66  PHE66      -0.0202
      7  CD1       22.0770  -46.5870 -128.1520 C.ar   66  PHE66      -0.0042
      8  CD2       20.9290  -48.6810 -128.3150 C.ar   66  PHE66      -0.0042
      9  CE1       22.5680  -46.9450 -126.8990 C.ar   66  PHE66      -0.0003
     10  CE2       21.4140  -49.0500 -127.0620 C.ar   66  PHE66      -0.0003
     11  CZ        22.2350  -48.1780 -126.3540 C.ar   66  PHE66      -0.0000
     12  N         17.9740  -44.8900 -131.5450 N.am   67  GLY67      -0.1942
     13  CA        17.4580  -44.3890 -132.8090 C.3    67  GLY67       0.2014
     14  C         17.2630  -45.4180 -133.9110 C.2    67  GLY67       0.2638
     15  O         17.3490  -45.0870 -135.0960 O.2    67  GLY67      -0.2714
     16  N         16.9960  -46.6650 -133.5390 N.am   68  LEU68      -0.1977
     17  CA        16.7880  -47.7130 -134.5280 C.3    68  LEU68       0.1596
     18  C         15.5000  -47.4500 -135.3080 C.2    68  LEU68       0.2287
     19  O         15.4150  -47.7250 -136.5050 O.2    68  LEU68      -0.2864
     20  CB        16.6940  -49.0790 -133.8450 C.3    68  LEU68       0.0297
     21  CG        17.4640  -50.2360 -134.4850 C.3    68  LEU68       0.0022
     22  CD1       17.0080  -51.5440 -133.8690 C.3    68  LEU68       0.0001
     23  CD2       17.2260  -50.2610 -135.9760 C.3    68  LEU68       0.0001
     24  N         15.0070  -46.0250 -139.0040 N.3    71  ASN71      -0.1240
     25  CA        14.9420  -46.8030 -140.2360 C.3    71  ASN71       0.1653
     26  C         14.2560  -48.1460 -139.9950 C.2    71  ASN71       0.2266
     27  O         14.7610  -48.9860 -139.2510 O.2    71  ASN71      -0.2867
     28  CB        16.3520  -47.0370 -140.7890 C.3    71  ASN71       0.1155
     29  CG        17.0860  -45.7410 -141.0930 C.2    71  ASN71       0.2627
     30  OD1       16.7070  -44.9960 -141.9990 O.2    71  ASN71      -0.2716
     31  ND2       18.1400  -45.4660 -140.3320 N.am   71  ASN71      -0.0877
     32  N         21.1560  -53.4780 -142.1520 N.3   100  PHE100     -0.1227
     33  CA        21.7030  -53.5080 -140.8010 C.3   100  PHE100      0.1736
     34  C         22.8370  -54.5320 -140.7110 C.2   100  PHE100      0.2596
     35  O         23.0040  -55.1890 -139.6870 O.2   100  PHE100     -0.2718
     36  CB        20.6110  -53.8590 -139.7750 C.3   100  PHE100      0.0547
     37  CG        19.5440  -52.8050 -139.6270 C.ar  100  PHE100     -0.0202
     38  CD1       19.8930  -51.4780 -139.3890 C.ar  100  PHE100     -0.0042
     39  CD2       18.1940  -53.1390 -139.7130 C.ar  100  PHE100     -0.0042
     40  CE1       18.9140  -50.4990 -139.2400 C.ar  100  PHE100     -0.0003
     41  CE2       17.2080  -52.1660 -139.5640 C.ar  100  PHE100     -0.0003
     42  CZ        17.5700  -50.8420 -139.3270 C.ar  100  PHE100     -0.0000
     43  N         23.6110  -54.6650 -141.7840 N.am  101  GLY101     -0.1957
     44  CA        24.7020  -55.6190 -141.7870 C.3   101  GLY101      0.1869
     45  C         24.2120  -57.0370 -141.5720 C.2   101  GLY101      0.2309
     46  O         24.9700  -57.9180 -141.1510 O.2   101  GLY101     -0.2863
     47  N         22.4090  -57.9990 -139.3280 N.3   103  ALA103     -0.1245
     48  CA        22.3370  -58.2720 -137.8920 C.3   103  ALA103      0.1562
     49  C         20.9480  -58.7830 -137.4920 C.2   103  ALA103      0.2260
     50  O         19.9350  -58.1420 -137.7780 O.2   103  ALA103     -0.2867
     51  CB        22.6890  -57.0060 -137.0930 C.3   103  ALA103      0.0290
     52  N         26.2560  -60.2800 -139.8790 N.3   133  GLY133     -0.1210
     53  CA        27.3940  -59.7900 -139.1280 C.3   133  GLY133      0.1956
     54  C         27.3040  -60.1860 -137.6640 C.2   133  GLY133      0.2612
     55  O         28.2920  -60.1090 -136.9360 O.2   133  GLY133     -0.2717
     56  N         26.1230  -60.6170 -137.2290 N.am  134  GLY134     -0.1942
     57  CA        25.9440  -61.0070 -135.8390 C.3   134  GLY134      0.2014
     58  C         24.6070  -60.5700 -135.2670 C.2   134  GLY134      0.2639
     59  O         23.5990  -60.5510 -135.9690 O.2   134  GLY134     -0.2714
     60  N         24.5880  -60.2230 -133.9840 N.am  135  ALA135     -0.1963
     61  CA        23.3540  -59.7910 -133.3400 C.3   135  ALA135      0.1728
     62  C         23.1670  -58.2870 -133.4920 C.2   135  ALA135      0.2616
     63  O         24.1290  -57.5250 -133.4270 O.2   135  ALA135     -0.2715
     64  CB        23.3760  -60.1640 -131.8610 C.3   135  ALA135      0.0334
     65  N         21.9270  -57.8610 -133.7000 N.am  136  ARG136     -0.1963
     66  CA        21.6340  -56.4410 -133.8400 C.3   136  ARG136      0.1729
     67  C         21.6830  -55.8320 -132.4340 C.2   136  ARG136      0.2616
     68  O         20.6770  -55.7950 -131.7190 O.2   136  ARG136     -0.2715
     69  CB        20.2540  -56.2640 -134.4740 C.3   136  ARG136      0.0348
     70  CG        20.0160  -54.8820 -135.0280 C.3   136  ARG136      0.0492
     71  CD        18.6300  -54.7650 -135.6370 C.3   136  ARG136      0.2205
     72  NE        18.4430  -55.6240 -136.8040 N.pl3 136  ARG136     -0.0865
     73  CZ        17.2960  -55.7220 -137.4710 C.cat 136  ARG136      0.5346
     74  NH1       16.2370  -55.0190 -137.0840 N.pl3 136  ARG136      0.1354
     75  NH2       17.1990  -56.5250 -138.5220 N.pl3 136  ARG136      0.1354
     76  N         22.8710  -55.3600 -132.0590 N.am  137  ILE137     -0.1963
     77  CA        23.1390  -54.7850 -130.7400 C.3   137  ILE137      0.1727
     78  C         22.0880  -53.8110 -130.2050 C.2   137  ILE137      0.2616
     79  O         21.7810  -53.8320 -129.0150 O.2   137  ILE137     -0.2715
     80  CB        24.5410  -54.0920 -130.7120 C.3   137  ILE137      0.0290
     81  CG1       25.6060  -55.0340 -131.2910 C.3   137  ILE137      0.0022
     82  CG2       24.9220  -53.7180 -129.2810 C.3   137  ILE137      0.0023
     83  CD1       25.6930  -56.3940 -130.6060 C.3   137  ILE137      0.0001
     84  N         21.5360  -52.9650 -131.0690 N.am  138  GLN138     -0.1977
     85  CA        20.5240  -52.0070 -130.6240 C.3   138  GLN138      0.1601
     86  C         19.3660  -52.6730 -129.8790 C.2   138  GLN138      0.2287
     87  O         18.8780  -52.1410 -128.8820 O.2   138  GLN138     -0.2864
     88  CB        19.9520  -51.2220 -131.8060 C.3   138  GLN138      0.0394
     89  CG        20.9180  -50.2240 -132.4420 C.3   138  GLN138      0.0908
     90  CD        21.8740  -50.8600 -133.4290 C.2   138  GLN138      0.2608
     91  OE1       21.8000  -52.0500 -133.7060 O.2   138  GLN138     -0.2717
     92  NE2       22.7720  -50.0620 -133.9700 N.am  138  GLN138     -0.0878
@<TRIPOS>BOND
     1    32    33    1
     2    30    29    2
     3    44    43    1
     4    44    45    1
     5    43    34   am
     6    45    46    2
     7    29    28    1
     8    29    31   am
     9    33    34    1
    10    33    36    1
    11    28    25    1
    12    34    35    2
    13    25    26    1
    14    25    24    1
    15    26    27    2
    16    52    53    1
    17    36    37    1
    18    39    37   ar
    19    39    41   ar
    20    37    38   ar
    21    41    42   ar
    22    38    40   ar
    23    47    48    1
    24    42    40   ar
    25    53    54    1
    26    75    73    1
    27    48    49    1
    28    48    51    1
    29    50    49    2
    30    54    56   am
    31    54    55    2
    32    73    74    1
    33    73    72    2
    34    56    57    1
    35    72    71    1
    36    19    18    2
    37    23    21    1
    38    59    58    2
    39    57    58    1
    40    71    70    1
    41    18    17    1
    42    58    60   am
    43    15    14    2
    44    70    69    1
    45    17    20    1
    46    17    16    1
    47    21    22    1
    48    21    20    1
    49    69    66    1
    50    60    61    1
    51    92    90   am
    52    14    16   am
    53    14    13    1
    54    66    65    1
    55    66    67    1
    56    91    90    2
    57    65    62   am
    58    62    63    2
    59    62    61    1
    60    90    89    1
    61    61    64    1
    62    13    12    1
    63     4     3    2
    64    89    88    1
    65    67    76   am
    66    67    68    2
    67    76    77    1
    68    88    85    1
    69    12     3   am
    70     3     2    1
    71    81    80    1
    72    81    83    1
    73    84    85    1
    74    84    78   am
    75    77    80    1
    76    77    78    1
    77    80    82    1
    78    85    86    1
    79    78    79    2
    80     5     2    1
    81     5     6    1
    82     2     1    1
    83    86    87    2
    84     6     8   ar
    85     6     7   ar
    86     8    10   ar
    87     7     9   ar
    88    10    11   ar
    89     9    11   ar
