@<TRIPOS>MOLECULE
tmp/1xnyB02.pdb
 152 147 0 0 0
SMALL
GASTEIGER

@<TRIPOS>ATOM
      1  N         45.6480 -123.0750 -129.5050 N.3    66  PHE66      -0.1227
      2  CA        46.8950 -122.9270 -128.7690 C.3    66  PHE66       0.1736
      3  C         46.8350 -123.5740 -127.3860 C.2    66  PHE66       0.2596
      4  O         47.1690 -122.9480 -126.3820 O.2    66  PHE66      -0.2718
      5  CB        47.2360 -121.4390 -128.6420 C.3    66  PHE66       0.0547
      6  CG        47.4540 -120.7550 -129.9660 C.ar   66  PHE66      -0.0202
      7  CD1       48.6030 -121.0000 -130.7110 C.ar   66  PHE66      -0.0042
      8  CD2       46.4980 -119.8850 -130.4800 C.ar   66  PHE66      -0.0042
      9  CE1       48.7970 -120.3890 -131.9520 C.ar   66  PHE66      -0.0003
     10  CE2       46.6820 -119.2680 -131.7190 C.ar   66  PHE66      -0.0003
     11  CZ        47.8330 -119.5210 -132.4560 C.ar   66  PHE66      -0.0000
     12  N         46.4010 -124.8300 -127.3470 N.am   67  GLY67      -0.1942
     13  CA        46.3140 -125.5590 -126.0920 C.3    67  GLY67       0.2014
     14  C         45.5900 -124.8510 -124.9590 C.2    67  GLY67       0.2638
     15  O         45.8570 -125.1100 -123.7830 O.2    67  GLY67      -0.2714
     16  N         44.6650 -123.9640 -125.3030 N.am   68  LEU68      -0.1977
     17  CA        43.9190 -123.2370 -124.2920 C.3    68  LEU68       0.1596
     18  C         43.0590 -124.2100 -123.4950 C.2    68  LEU68       0.2287
     19  O         42.8620 -124.0380 -122.2940 O.2    68  LEU68      -0.2864
     20  CB        43.0270 -122.1840 -124.9520 C.3    68  LEU68       0.0297
     21  CG        42.8840 -120.8270 -124.2590 C.3    68  LEU68       0.0022
     22  CD1       41.7270 -120.0660 -124.8840 C.3    68  LEU68       0.0001
     23  CD2       42.6340 -121.0180 -122.7830 C.3    68  LEU68       0.0001
     24  N         43.7100 -126.7210 -122.2420 N.3    70  ALA70      -0.1231
     25  CA        44.4900 -127.3670 -121.1950 C.3    70  ALA70       0.1694
     26  C         43.9850 -126.9000 -119.8320 C.2    70  ALA70       0.2592
     27  O         44.1200 -127.5990 -118.8250 O.2    70  ALA70      -0.2718
     28  CB        45.9620 -127.0220 -121.3560 C.3    70  ALA70       0.0304
     29  N         43.4060 -125.7040 -119.8020 N.am   71  ASN71      -0.1974
     30  CA        42.8710 -125.1480 -118.5640 C.3    71  ASN71       0.1688
     31  C         41.5110 -124.5040 -118.8190 C.2    71  ASN71       0.2292
     32  O         41.4140 -123.5040 -119.5270 O.2    71  ASN71      -0.2864
     33  CB        43.8350 -124.1070 -117.9840 C.3    71  ASN71       0.1181
     34  CG        45.1710 -124.7030 -117.5670 C.2    71  ASN71       0.2629
     35  OD1       45.2400 -125.5200 -116.6450 O.2    71  ASN71      -0.2716
     36  ND2       46.2370 -124.3000 -118.2470 N.am   71  ASN71      -0.0877
     37  N         40.8930 -110.8050 -112.9290 N.3    97  PHE97      -0.1241
     38  CA        42.2400 -110.6480 -113.4570 C.3    97  PHE97       0.1605
     39  C         43.1320 -111.8700 -113.1990 C.2    97  PHE97       0.2264
     40  O         44.0630 -112.1300 -113.9600 O.2    97  PHE97      -0.2867
     41  CB        42.8950 -109.4060 -112.8440 C.3    97  PHE97       0.0534
     42  CG        44.2070 -109.0370 -113.4780 C.ar   97  PHE97      -0.0203
     43  CD1       44.2370 -108.3870 -114.7080 C.ar   97  PHE97      -0.0042
     44  CD2       45.4130 -109.3540 -112.8560 C.ar   97  PHE97      -0.0042
     45  CE1       45.4430 -108.0540 -115.3130 C.ar   97  PHE97      -0.0003
     46  CE2       46.6300 -109.0260 -113.4530 C.ar   97  PHE97      -0.0003
     47  CZ        46.6420 -108.3720 -114.6890 C.ar   97  PHE97      -0.0000
     48  N         43.4790 -116.0310 -116.5850 N.3   100  PHE100     -0.1227
     49  CA        43.8890 -115.6580 -117.9370 C.3   100  PHE100      0.1736
     50  C         44.1560 -114.1550 -118.0100 C.2   100  PHE100      0.2596
     51  O         43.9700 -113.5360 -119.0540 O.2   100  PHE100     -0.2718
     52  CB        42.8010 -116.0280 -118.9590 C.3   100  PHE100      0.0547
     53  CG        42.6070 -117.5130 -119.1460 C.ar  100  PHE100     -0.0202
     54  CD1       43.6860 -118.3310 -119.4640 C.ar  100  PHE100     -0.0042
     55  CD2       41.3430 -118.0910 -119.0190 C.ar  100  PHE100     -0.0042
     56  CE1       43.5160 -119.7060 -119.6540 C.ar  100  PHE100     -0.0003
     57  CE2       41.1610 -119.4680 -119.2070 C.ar  100  PHE100     -0.0003
     58  CZ        42.2510 -120.2750 -119.5250 C.ar  100  PHE100     -0.0000
     59  N         44.5900 -113.5720 -116.8960 N.am  101  GLY101     -0.1957
     60  CA        44.8580 -112.1480 -116.8680 C.3   101  GLY101      0.1869
     61  C         43.5910 -111.3500 -117.1100 C.2   101  GLY101      0.2309
     62  O         43.6450 -110.1800 -117.4890 O.2   101  GLY101     -0.2863
     63  N         41.6490 -111.7370 -119.4520 N.3   103  ALA103     -0.1245
     64  CA        41.4340 -111.6140 -120.8970 C.3   103  ALA103      0.1562
     65  C         40.0270 -112.0710 -121.2860 C.2   103  ALA103      0.2260
     66  O         39.5980 -113.1690 -120.9220 O.2   103  ALA103     -0.2867
     67  CB        42.4790 -112.4340 -121.6540 C.3   103  ALA103      0.0290
     68  N         43.2380 -107.5770 -118.8910 N.3   133  GLY133     -0.1210
     69  CA        44.4230 -107.2320 -119.6490 C.3   133  GLY133      0.1956
     70  C         44.0970 -107.0110 -121.1140 C.2   133  GLY133      0.2612
     71  O         44.9250 -106.5070 -121.8660 O.2   133  GLY133     -0.2717
     72  N         42.8900 -107.3800 -121.5260 N.am  134  GLY134     -0.1942
     73  CA        42.5110 -107.2030 -122.9140 C.3   134  GLY134      0.2014
     74  C         41.7490 -108.3930 -123.4600 C.2   134  GLY134      0.2639
     75  O         41.0380 -109.0710 -122.7260 O.2   134  GLY134     -0.2714
     76  N         41.8960 -108.6370 -124.7570 N.am  135  ALA135     -0.1963
     77  CA        41.2210 -109.7500 -125.4040 C.3   135  ALA135      0.1728
     78  C         42.0430 -111.0360 -125.2890 C.2   135  ALA135      0.2616
     79  O         43.2760 -111.0120 -125.3250 O.2   135  ALA135     -0.2715
     80  CB        40.9590 -109.4110 -126.8770 C.3   135  ALA135      0.0334
     81  N         41.3580 -112.1590 -125.1320 N.am  136  ARG136     -0.1963
     82  CA        42.0350 -113.4400 -125.0260 C.3   136  ARG136      0.1729
     83  C         42.4620 -113.8640 -126.4450 C.2   136  ARG136      0.2616
     84  O         41.7080 -114.5210 -127.1620 O.2   136  ARG136     -0.2715
     85  CB        41.0820 -114.4600 -124.3920 C.3   136  ARG136      0.0348
     86  CG        41.7690 -115.6620 -123.7850 C.3   136  ARG136      0.0492
     87  CD        40.7600 -116.6400 -123.1900 C.3   136  ARG136      0.2205
     88  NE        40.0970 -116.1330 -121.9900 N.pl3 136  ARG136     -0.0865
     89  CZ        39.1040 -116.7630 -121.3680 C.cat 136  ARG136      0.5346
     90  NH1       38.6500 -117.9190 -121.8340 N.pl3 136  ARG136      0.1354
     91  NH2       38.5720 -116.2470 -120.2660 N.pl3 136  ARG136      0.1354
     92  N         43.6750 -113.4690 -126.8360 N.am  137  ILE137     -0.1963
     93  CA        44.2260 -113.7610 -128.1640 C.3   137  ILE137      0.1727
     94  C         44.0000 -115.1890 -128.6700 C.2   137  ILE137      0.2616
     95  O         43.6710 -115.3980 -129.8390 O.2   137  ILE137     -0.2715
     96  CB        45.7580 -113.4570 -128.2170 C.3   137  ILE137      0.0290
     97  CG1       46.3050 -113.7820 -129.6140 C.3   137  ILE137      0.0022
     98  CG2       46.5060 -114.2630 -127.1370 C.3   137  ILE137      0.0023
     99  CD1       45.6950 -112.9720 -130.7490 C.3   137  ILE137      0.0001
    100  N         44.1790 -116.1700 -127.7930 N.am  138  GLN138     -0.1977
    101  CA        43.9910 -117.5600 -128.1840 C.3   138  GLN138      0.1601
    102  C         42.6750 -117.7980 -128.9230 C.2   138  GLN138      0.2287
    103  O         42.6400 -118.5010 -129.9320 O.2   138  GLN138     -0.2864
    104  CB        44.0450 -118.4800 -126.9630 C.3   138  GLN138      0.0394
    105  CG        45.4310 -118.6590 -126.3560 C.3   138  GLN138      0.0908
    106  CD        45.7770 -117.5990 -125.3290 C.2   138  GLN138      0.2608
    107  OE1       46.8760 -117.5980 -124.7780 O.2   138  GLN138     -0.2717
    108  NE2       44.8400 -116.6970 -125.0620 N.am  138  GLN138     -0.0878
    109  N         36.3840 -110.7820 -130.3880 N.3   144  LEU144     -0.1245
    110  CA        35.8540 -109.5800 -131.0190 C.3   144  LEU144      0.1561
    111  C         34.3460 -109.6800 -131.1400 C.2   144  LEU144      0.2260
    112  O         33.6350 -108.6810 -131.0570 O.2   144  LEU144     -0.2867
    113  CB        36.4740 -109.3830 -132.4050 C.3   144  LEU144      0.0270
    114  CG        38.0040 -109.3740 -132.4870 C.3   144  LEU144      0.0019
    115  CD1       38.4170 -109.0700 -133.9180 C.3   144  LEU144      0.0001
    116  CD2       38.5840 -108.3380 -131.5340 C.3   144  LEU144      0.0001
    117  N         32.8180 -108.7510 -127.7590 N.3   147  TYR147     -0.1241
    118  CA        32.9100 -107.3050 -127.5580 C.3   147  TYR147      0.1605
    119  C         31.7930 -106.5930 -128.3070 C.2   147  TYR147      0.2264
    120  O         31.0990 -105.7480 -127.7430 O.2   147  TYR147     -0.2867
    121  CB        34.2540 -106.7610 -128.0550 C.3   147  TYR147      0.0534
    122  CG        35.4050 -106.9330 -127.0930 C.ar  147  TYR147     -0.0201
    123  CD1       35.3240 -106.4650 -125.7770 C.ar  147  TYR147     -0.0009
    124  CD2       36.5940 -107.5220 -127.5120 C.ar  147  TYR147     -0.0009
    125  CE1       36.4130 -106.5810 -124.9040 C.ar  147  TYR147      0.0417
    126  CE2       37.6830 -107.6370 -126.6570 C.ar  147  TYR147      0.0417
    127  CZ        37.5920 -107.1650 -125.3580 C.ar  147  TYR147      0.1957
    128  OH        38.6950 -107.2700 -124.5440 O.3   147  TYR147     -0.2866
    129  N         28.8880 -104.2160 -126.9090 N.3   151  PHE151     -0.1241
    130  CA        28.7140 -102.8380 -127.3560 C.3   151  PHE151      0.1605
    131  C         27.2590 -102.5670 -127.7430 C.2   151  PHE151      0.2264
    132  O         26.6890 -101.5320 -127.3740 O.2   151  PHE151     -0.2867
    133  CB        29.5990 -102.5290 -128.5720 C.3   151  PHE151      0.0534
    134  CG        31.0760 -102.6550 -128.3110 C.ar  151  PHE151     -0.0203
    135  CD1       31.5880 -102.4900 -127.0290 C.ar  151  PHE151     -0.0042
    136  CD2       31.9610 -102.9150 -129.3570 C.ar  151  PHE151     -0.0042
    137  CE1       32.9560 -102.5830 -126.7860 C.ar  151  PHE151     -0.0003
    138  CE2       33.3370 -103.0100 -129.1250 C.ar  151  PHE151     -0.0003
    139  CZ        33.8320 -102.8440 -127.8330 C.ar  151  PHE151     -0.0000
    140  N         42.0610 -102.3880 -121.9690 N.3   172  ALA172     -0.1231
    141  CA        42.8050 -102.0990 -123.1930 C.3   172  ALA172      0.1694
    142  C         42.1160 -102.5590 -124.4670 C.2   172  ALA172      0.2593
    143  O         41.2620 -103.4420 -124.4360 O.2   172  ALA172     -0.2718
    144  CB        44.2030 -102.7390 -123.1050 C.3   172  ALA172      0.0304
    145  N         42.5110 -101.9730 -125.5930 N.am  173  GLY173     -0.1942
    146  CA        41.9260 -102.3460 -126.8710 C.3   173  GLY173      0.2014
    147  C         40.5240 -101.8020 -127.0110 C.2   173  GLY173      0.2639
    148  O         40.1680 -100.8400 -126.3330 O.2   173  GLY173     -0.2714
    149  N         39.7370 -102.4220 -127.8870 N.am  174  GLY174     -0.1954
    150  CA        38.3690 -101.9870 -128.1080 C.3   174  GLY174      0.1869
    151  C         37.5270 -102.0520 -126.8510 C.2   174  GLY174      0.2309
    152  O         36.4710 -101.4260 -126.7690 O.2   174  GLY174     -0.2863
@<TRIPOS>BOND
     1   115   114    1
     2   114   113    1
     3   114   116    1
     4    11     9   ar
     5    11    10   ar
     6   113   110    1
     7     9     7   ar
     8    10     8   ar
     9   111   112    2
    10   111   110    1
    11   110   109    1
    12    99    97    1
    13     7     6   ar
    14     8     6   ar
    15     6     5    1
    16   103   102    2
    17    95    94    2
    18    97    96    1
    19     1     2    1
    20   136   138   ar
    21   136   134   ar
    22   138   139   ar
    23   102   101    1
    24     2     5    1
    25     2     3    1
    26    94    93    1
    27    94   100   am
    28   133   134    1
    29   133   130    1
    30   134   135   ar
    31   119   120    2
    32   119   118    1
    33    96    93    1
    34    96    98    1
    35   101   100    1
    36   101   104    1
    37    93    92    1
    38   150   149    1
    39   150   151    1
    40   121   118    1
    41   121   122    1
    42   149   147   am
    43   139   137   ar
    44   117   118    1
    45   131   132    2
    46   131   130    1
    47   124   122   ar
    48   124   126   ar
    49     3    12   am
    50     3     4    2
    51   130   129    1
    52    12    13    1
    53    84    83    2
    54   122   123   ar
    55   135   137   ar
    56   147   146    1
    57   147   148    2
    58   104   105    1
    59    80    77    1
    60   146   145    1
    61   151   152    2
    62    92    83   am
    63   126   127   ar
    64    83    82    1
    65   105   106    1
    66    13    14    1
    67   123   125   ar
    68   145   142   am
    69    77    78    1
    70    77    76    1
    71   127   125   ar
    72   127   128    1
    73   106   108   am
    74   106   107    2
    75    79    78    2
    76    16    14   am
    77    16    17    1
    78    78    81   am
    79    81    82    1
    80    82    85    1
    81    14    15    2
    82    20    17    1
    83    20    21    1
    84    22    21    1
    85    76    74   am
    86   142   143    2
    87   142   141    1
    88    85    86    1
    89    17    18    1
    90    21    23    1
    91    86    87    1
    92    18    19    2
    93    74    73    1
    94    74    75    2
    95   141   144    1
    96   141   140    1
    97    87    88    1
    98    73    72    1
    99    24    25    1
   100    88    89    2
   101    71    70    2
   102    90    89    1
   103    67    64    1
   104    72    70   am
   105    89    91    1
   106    28    25    1
   107    65    66    2
   108    65    64    1
   109    25    26    1
   110    70    69    1
   111    64    63    1
   112    26    29   am
   113    26    27    2
   114    29    30    1
   115    56    58   ar
   116    56    54   ar
   117    69    68    1
   118    32    31    2
   119    58    57   ar
   120    54    53   ar
   121    57    55   ar
   122    53    55   ar
   123    53    52    1
   124    51    50    2
   125    52    49    1
   126    31    30    1
   127    30    33    1
   128    36    34   am
   129    50    49    1
   130    50    59   am
   131    33    34    1
   132    49    48    1
   133    34    35    2
   134    62    61    2
   135    61    60    1
   136    59    60    1
   137    45    43   ar
   138    45    47   ar
   139    43    42   ar
   140    47    46   ar
   141    40    39    2
   142    42    44   ar
   143    42    41    1
   144    38    39    1
   145    38    37    1
   146    38    41    1
   147    46    44   ar
