@<TRIPOS>MOLECULE
tmp/1xo2B00.pdb
 141 132 0 0 0
SMALL
GASTEIGER

@<TRIPOS>ATOM
      1  N         -4.3350   32.1500  137.0880 N.3     9  ILE9       -0.1231
      2  CA        -4.6710   33.4350  137.6890 C.3     9  ILE9        0.1692
      3  C         -4.3370   34.5300  136.6950 C.2     9  ILE9        0.2592
      4  O         -3.7530   35.5610  137.0270 O.2     9  ILE9       -0.2718
      5  CB        -3.9110   33.6690  139.0200 C.3     9  ILE9        0.0266
      6  CG1       -2.4110   33.4790  138.8270 C.3     9  ILE9        0.0019
      7  CG2       -4.4290   32.7070  140.0820 C.3     9  ILE9        0.0020
      8  CD1       -1.6170   33.6070  140.1240 C.3     9  ILE9        0.0001
      9  N         -4.7390   34.2910  135.4580 N.am   10  GLY10      -0.1957
     10  CA        -4.4630   35.2430  134.4030 C.3    10  GLY10       0.1869
     11  C         -3.2770   34.7390  133.6010 C.2    10  GLY10       0.2309
     12  O         -2.3620   34.1160  134.1410 O.2    10  GLY10      -0.2863
     13  N         -0.2720   32.0170  133.7700 N.3    17  VAL17      -0.1245
     14  CA         0.2730   32.0780  135.1200 C.3    17  VAL17       0.1561
     15  C         -0.6550   31.3450  136.0850 C.2    17  VAL17       0.2260
     16  O         -1.6700   31.8900  136.5180 O.2    17  VAL17      -0.2867
     17  CB         0.4340   33.5340  135.5740 C.3    17  VAL17       0.0252
     18  CG1        1.0300   33.5840  136.9540 C.3    17  VAL17       0.0019
     19  CG2        1.3080   34.2830  134.5870 C.3    17  VAL17       0.0019
     20  N          3.4160   31.2180  142.8960 N.3    31  ALA31      -0.1245
     21  CA         2.9420   31.6080  141.5710 C.3    31  ALA31       0.1562
     22  C          3.8240   30.9460  140.5200 C.2    31  ALA31       0.2260
     23  O          5.0480   31.0190  140.6080 O.2    31  ALA31      -0.2867
     24  CB         2.9930   33.1140  141.4210 C.3    31  ALA31       0.0290
     25  N          4.9120   30.7980  136.6190 N.3    33  LYS33      -0.1245
     26  CA         4.9190   31.4250  135.3150 C.3    33  LYS33       0.1561
     27  C          5.7580   30.5480  134.4090 C.2    33  LYS33       0.2260
     28  O          6.9740   30.6950  134.3370 O.2    33  LYS33      -0.2867
     29  CB         5.5240   32.8210  135.4060 C.3    33  LYS33       0.0271
     30  CG         5.3680   33.6330  134.1520 C.3    33  LYS33       0.0035
     31  CD         5.9690   35.0070  134.3110 C.3    33  LYS33       0.0206
     32  CE         5.7590   35.8170  133.0520 C.3    33  LYS33       0.1093
     33  NZ         6.3400   37.1750  133.1500 N.3    33  LYS33      -0.1314
     34  N         13.8660   39.4970  132.8470 N.3    51  GLU51      -0.1245
     35  CA        13.1350   39.4560  134.1040 C.3    51  GLU51       0.1567
     36  C         13.9260   38.8190  135.2500 C.2    51  GLU51       0.2260
     37  O         14.2790   39.4930  136.2350 O.2    51  GLU51      -0.2867
     38  CB        11.8020   38.7220  133.9190 C.3    51  GLU51       0.0388
     39  CG        11.0230   38.5420  135.2030 C.3    51  GLU51       0.1160
     40  CD         9.5640   38.2520  134.9600 C.2    51  GLU51       0.3649
     41  OE1        9.2560   37.4790  134.0280 O.co2  51  GLU51      -0.2457
     42  OE2        8.7260   38.7930  135.7100 O.co2  51  GLU51      -0.2457
     43  N          7.8860   42.0050  143.9990 N.3    67  VAL67      -0.1245
     44  CA         7.5470   40.5900  144.1750 C.3    67  VAL67       0.1561
     45  C          8.7910   39.7060  144.2640 C.2    67  VAL67       0.2260
     46  O          9.8420   40.0520  143.7330 O.2    67  VAL67      -0.2867
     47  CB         6.6310   40.0710  143.0420 C.3    67  VAL67       0.0252
     48  CG1        7.3350   40.1810  141.6930 C.3    67  VAL67       0.0019
     49  CG2        6.2150   38.6370  143.3400 C.3    67  VAL67       0.0019
     50  N          7.3070   31.9950  141.2470 N.3    85  PHE85      -0.1227
     51  CA         7.3170   33.1810  142.1030 C.3    85  PHE85       0.1736
     52  C          6.5460   32.9530  143.4060 C.2    85  PHE85       0.2595
     53  O          6.1130   31.8400  143.7080 O.2    85  PHE85      -0.2718
     54  CB         6.6810   34.3690  141.3820 C.3    85  PHE85       0.0547
     55  CG         7.4010   34.7970  140.1440 C.ar   85  PHE85      -0.0202
     56  CD1        7.3380   34.0300  138.9850 C.ar   85  PHE85      -0.0042
     57  CD2        8.0830   36.0090  140.1130 C.ar   85  PHE85      -0.0042
     58  CE1        7.9330   34.4660  137.8050 C.ar   85  PHE85      -0.0003
     59  CE2        8.6840   36.4560  138.9380 C.ar   85  PHE85      -0.0003
     60  CZ         8.6060   35.6840  137.7810 C.ar   85  PHE85      -0.0000
     61  N          6.3810   34.0190  144.1820 N.am   86  GLU86      -0.1965
     62  CA         5.6260   33.9220  145.4200 C.3    86  GLU86       0.1733
     63  C          4.1870   34.1830  145.0150 C.2    86  GLU86       0.2616
     64  O          3.9360   34.7940  143.9740 O.2    86  GLU86      -0.2715
     65  CB         6.0810   34.9740  146.4510 C.3    86  GLU86       0.0429
     66  CG         5.7230   36.4130  146.0980 C.3    86  GLU86       0.1163
     67  CD         5.9010   37.3800  147.2650 C.2    86  GLU86       0.3649
     68  OE1        5.1730   37.2400  148.2720 O.co2  86  GLU86      -0.2457
     69  OE2        6.7660   38.2820  147.1750 O.co2  86  GLU86      -0.2457
     70  N          3.2420   33.7110  145.8180 N.am   87  HIS87      -0.1959
     71  CA         1.8450   33.9390  145.5000 C.3    87  HIS87       0.1787
     72  C          1.1740   34.8790  146.4780 C.2    87  HIS87       0.2620
     73  O          1.1680   34.6450  147.6810 O.2    87  HIS87      -0.2715
     74  CB         1.0570   32.6370  145.4710 C.3    87  HIS87       0.0785
     75  CG        -0.4030   32.8360  145.2090 C.ar   87  HIS87       0.0821
     76  ND1       -1.3810   32.4130  146.0820 N.ar   87  HIS87      -0.2267
     77  CD2       -1.0500   33.4360  144.1810 C.ar   87  HIS87       0.1154
     78  CE1       -2.5680   32.7450  145.6040 C.ar   87  HIS87       0.1986
     79  NE2       -2.3950   33.3670  144.4510 N.ar   87  HIS87      -0.2212
     80  N          0.6140   35.9500  145.9380 N.am   88  VAL88      -0.1977
     81  CA        -0.0940   36.9300  146.7320 C.3    88  VAL88       0.1596
     82  C         -1.5770   36.5830  146.5720 C.2    88  VAL88       0.2287
     83  O         -1.9520   35.9080  145.6150 O.2    88  VAL88      -0.2864
     84  CB         0.2090   38.3400  146.2220 C.3    88  VAL88       0.0276
     85  CG1       -0.5420   39.3550  147.0330 C.3    88  VAL88       0.0022
     86  CG2        1.6970   38.5970  146.3130 C.3    88  VAL88       0.0022
     87  N         -4.2040   38.1940  145.5440 N.3    90  GLN90      -0.1231
     88  CA        -4.8630   38.6360  144.3140 C.3    90  GLN90       0.1698
     89  C         -4.1740   39.8490  143.6980 C.2    90  GLN90       0.2592
     90  O         -3.4020   40.5430  144.3560 O.2    90  GLN90      -0.2718
     91  CB        -6.3420   38.9700  144.5760 C.3    90  GLN90       0.0381
     92  CG        -6.7480   39.0540  146.0540 C.3    90  GLN90       0.0905
     93  CD        -7.1330   40.4530  146.5130 C.2    90  GLN90       0.2608
     94  OE1       -7.3780   40.6810  147.6990 O.2    90  GLN90      -0.2717
     95  NE2       -7.1940   41.3910  145.5790 N.am   90  GLN90      -0.0878
     96  N         -4.4330   40.0940  142.4220 N.am   91  ASP91      -0.1974
     97  CA        -3.8450   41.2480  141.7670 C.3    91  ASP91       0.1709
     98  C         -4.7250   42.4240  142.1390 C.2    91  ASP91       0.2293
     99  O         -5.7200   42.2450  142.8320 O.2    91  ASP91      -0.2864
    100  CB        -3.8150   41.0600  140.2470 C.3    91  ASP91       0.1436
    101  CG        -5.1730   40.7130  139.6700 C.2    91  ASP91       0.3671
    102  OD1       -5.7930   39.7390  140.1460 O.co2  91  ASP91      -0.2456
    103  OD2       -5.6210   41.4080  138.7360 O.co2  91  ASP91      -0.2456
    104  N         -3.2310   44.6100  136.5280 N.3   136  GLN136     -0.1231
    105  CA        -2.9850   43.1740  136.4440 C.3   136  GLN136      0.1698
    106  C         -1.5870   42.7890  136.9030 C.2   136  GLN136      0.2592
    107  O         -1.3620   41.6560  137.3170 O.2   136  GLN136     -0.2718
    108  CB        -3.2240   42.6720  135.0180 C.3   136  GLN136      0.0381
    109  CG        -2.7870   41.2130  134.7510 C.3   136  GLN136      0.0905
    110  CD        -3.5160   40.1510  135.6000 C.2   136  GLN136      0.2608
    111  OE1       -4.0070   39.1490  135.0650 O.2   136  GLN136     -0.2717
    112  NE2       -3.5710   40.3570  136.9130 N.am  136  GLN136     -0.0878
    113  N         -0.6450   43.7250  136.8460 N.am  137  ASN137     -0.1974
    114  CA         0.7110   43.4180  137.2830 C.3   137  ASN137      0.1688
    115  C          1.0370   43.8260  138.7300 C.2   137  ASN137      0.2292
    116  O          2.1740   43.6880  139.1740 O.2   137  ASN137     -0.2864
    117  CB         1.7260   44.0140  136.3050 C.3   137  ASN137      0.1181
    118  CG         1.7170   43.2960  134.9430 C.2   137  ASN137      0.2629
    119  OD1        1.8520   42.0710  134.8750 O.2   137  ASN137     -0.2716
    120  ND2        1.5610   44.0610  133.8570 N.am  137  ASN137     -0.0877
    121  N          0.4590   43.0580  142.6820 N.3   139  LEU139     -0.1245
    122  CA        -0.0720   42.0600  143.6040 C.3   139  LEU139      0.1561
    123  C         -0.4800   42.7030  144.9380 C.2   139  LEU139      0.2260
    124  O          0.3270   43.3710  145.5930 O.2   139  LEU139     -0.2867
    125  CB         0.9690   40.9710  143.8620 C.3   139  LEU139      0.0270
    126  CG         1.5950   40.3410  142.6200 C.3   139  LEU139      0.0019
    127  CD1        2.3150   39.0740  143.0260 C.3   139  LEU139      0.0001
    128  CD2        0.5170   40.0490  141.5860 C.3   139  LEU139      0.0001
    129  N          4.8710   43.3310  139.9180 N.3   149  ALA149     -0.1231
    130  CA         5.1110   42.0500  139.2600 C.3   149  ALA149      0.1694
    131  C          5.2620   42.1250  137.7350 C.2   149  ALA149      0.2592
    132  O          5.0470   43.1700  137.1240 O.2   149  ALA149     -0.2718
    133  CB         3.9900   41.0780  139.6230 C.3   149  ALA149      0.0304
    134  N          5.6440   41.0010  137.1320 N.am  150  ASP150     -0.1974
    135  CA         5.8190   40.9030  135.6830 C.3   150  ASP150      0.1709
    136  C          6.8520   41.8780  135.1340 C.2   150  ASP150      0.2293
    137  O          6.5090   42.8830  134.5090 O.2   150  ASP150     -0.2864
    138  CB         4.4800   41.1280  134.9750 C.3   150  ASP150      0.1436
    139  CG         4.4480   40.5410  133.5730 C.2   150  ASP150      0.3671
    140  OD1        5.3420   40.8640  132.7620 O.co2 150  ASP150     -0.2456
    141  OD2        3.5220   39.7560  133.2800 O.co2 150  ASP150     -0.2456
@<TRIPOS>BOND
     1   140   139   ar
     2    34    35    1
     3    32    33    1
     4    32    31    1
     5   141   139   ar
     6   139   138    1
     7    11    12    2
     8    11    10    1
     9    13    14    1
    10   120   118   am
    11    38    35    1
    12    38    39    1
    13    41    40   ar
    14    35    36    1
    15    30    31    1
    16    30    29    1
    17    28    27    2
    18    10     9    1
    19    27    26    1
    20   137   136    2
    21    19    17    1
    22   109   108    1
    23   109   110    1
    24   119   118    2
    25   118   117    1
    26    40    39    1
    27    40    42   ar
    28   138   135    1
    29   108   105    1
    30   111   110    2
    31    14    17    1
    32    14    15    1
    33   136   135    1
    34    36    37    2
    35    26    29    1
    36    26    25    1
    37     9     3   am
    38    17    18    1
    39   110   112   am
    40   135   134    1
    41    15    16    2
    42   117   114    1
    43   105   104    1
    44   105   106    1
    45     3     4    2
    46     3     2    1
    47   113   106   am
    48   113   114    1
    49   106   107    2
    50     1     2    1
    51   132   131    2
    52   134   131   am
    53   114   115    1
    54     2     5    1
    55   131   130    1
    56    60    58   ar
    57    60    59   ar
    58    58    56   ar
    59   115   116    2
    60   103   101   ar
    61     6     5    1
    62     6     8    1
    63    59    57   ar
    64    56    55   ar
    65     5     7    1
    66   130   133    1
    67   130   129    1
    68   101   102   ar
    69   101   100    1
    70    57    55   ar
    71    55    54    1
    72   100    97    1
    73    22    23    2
    74    22    21    1
    75    50    51    1
    76    54    51    1
    77    24    21    1
    78    21    20    1
    79   128   126    1
    80    48    47    1
    81    97    98    1
    82    97    96    1
    83    51    52    1
    84    98    99    2
    85    96    89   am
    86   126   127    1
    87   126   125    1
    88   121   122    1
    89    47    49    1
    90    47    44    1
    91    52    53    2
    92    52    61   am
    93   122   125    1
    94   122   123    1
    95    89    88    1
    96    89    90    2
    97    46    45    2
    98    64    63    2
    99    43    44    1
   100    44    45    1
   101    77    79   ar
   102    77    75   ar
   103    61    62    1
   104    88    91    1
   105    88    87    1
   106    79    78   ar
   107    91    92    1
   108   123   124    2
   109    63    62    1
   110    63    70   am
   111    75    74    1
   112    75    76   ar
   113    62    65    1
   114    74    71    1
   115    71    70    1
   116    71    72    1
   117    95    93   am
   118    78    76   ar
   119    83    82    2
   120    80    72   am
   121    80    81    1
   122    92    93    1
   123    66    65    1
   124    66    67    1
   125    84    86    1
   126    84    81    1
   127    84    85    1
   128    72    73    2
   129    93    94    2
   130    82    81    1
   131    69    67   ar
   132    67    68   ar
