@<TRIPOS>MOLECULE
tmp/1xoeA01.pdb
 165 154 0 0 0
SMALL
GASTEIGER

@<TRIPOS>ATOM
      1  N         15.6380   13.2230   62.9710 N.3    36  ARG36      -0.1231
      2  CA        16.2720   14.5290   63.0080 C.3    36  ARG36       0.1694
      3  C         16.8700   14.7220   61.6240 C.2    36  ARG36       0.2591
      4  O         16.9050   13.7830   60.8300 O.2    36  ARG36      -0.2718
      5  CB        17.3480   14.6370   64.0920 C.3    36  ARG36       0.0321
      6  CG        16.8650   15.4010   65.3310 C.3    36  ARG36       0.0489
      7  CD        17.9180   16.3880   65.8410 C.3    36  ARG36       0.2205
      8  NE        18.2180   17.4150   64.8490 N.pl3  36  ARG36      -0.0865
      9  CZ        19.2250   18.2790   64.9370 C.cat  36  ARG36       0.5346
     10  NH1       20.0460   18.2490   65.9770 N.pl3  36  ARG36       0.1354
     11  NH2       19.4140   19.1760   63.9780 N.pl3  36  ARG36       0.1354
     12  N         17.3130   15.9380   61.3290 N.am   37  GLU37      -0.1979
     13  CA        17.8860   16.2500   60.0270 C.3    37  GLU37       0.1602
     14  C         16.9400   15.8200   58.8960 C.2    37  GLU37       0.2287
     15  O         17.3050   15.0230   58.0340 O.2    37  GLU37      -0.2864
     16  CB        19.2430   15.5560   59.8520 C.3    37  GLU37       0.0415
     17  CG        20.3210   15.9530   60.8600 C.3    37  GLU37       0.1163
     18  CD        20.2380   15.1580   62.1490 C.2    37  GLU37       0.3649
     19  OE1       19.8010   13.9900   62.0850 O.co2  37  GLU37      -0.2457
     20  OE2       20.6190   15.6870   63.2160 O.co2  37  GLU37      -0.2457
     21  N         16.4050   11.2730   59.0220 N.3    52  LEU52      -0.1245
     22  CA        17.3070   10.2430   59.5090 C.3    52  LEU52       0.1561
     23  C         16.7470    9.6050   60.7720 C.2    52  LEU52       0.2260
     24  O         16.8100   10.1850   61.8540 O.2    52  LEU52      -0.2867
     25  CB        18.6810   10.8450   59.8000 C.3    52  LEU52       0.0270
     26  CG        19.5150   11.1980   58.5720 C.3    52  LEU52       0.0019
     27  CD1       20.8090   11.8700   59.0090 C.3    52  LEU52       0.0001
     28  CD2       19.7930    9.9190   57.7830 C.3    52  LEU52       0.0001
     29  N         24.2350   11.9010   67.2910 N.3    69  ASP69      -0.1225
     30  CA        24.0740   12.0600   65.8470 C.3    69  ASP69       0.1805
     31  C         24.4540   10.8780   64.9660 C.2    69  ASP69       0.2597
     32  O         23.8220   10.6350   63.9300 O.2    69  ASP69      -0.2718
     33  CB        24.8870   13.2600   65.3720 C.3    69  ASP69       0.1424
     34  CG        24.5150   14.5320   66.0910 C.2    69  ASP69       0.3668
     35  OD1       23.3070   14.8350   66.1590 O.co2  69  ASP69      -0.2456
     36  OD2       25.4270   15.2310   66.5840 O.co2  69  ASP69      -0.2456
     37  N         25.4920   10.1510   65.3660 N.am   70  ARG70      -0.1979
     38  CA        25.9690    9.0490   64.5470 C.3    70  ARG70       0.1597
     39  C         26.0310    7.6930   65.2380 C.2    70  ARG70       0.2287
     40  O         26.9150    7.4510   66.0450 O.2    70  ARG70      -0.2864
     41  CB        27.3490    9.4290   63.9900 C.3    70  ARG70       0.0334
     42  CG        27.3640   10.7880   63.2890 C.3    70  ARG70       0.0492
     43  CD        28.7620   11.1670   62.7640 C.3    70  ARG70       0.2205
     44  NE        29.7500   11.1720   63.8380 N.pl3  70  ARG70      -0.0865
     45  CZ        29.8090   12.0820   64.8080 C.cat  70  ARG70       0.5346
     46  NH1       28.9430   13.0860   64.8480 N.pl3  70  ARG70       0.1354
     47  NH2       30.7250   11.9670   65.7610 N.pl3  70  ARG70       0.1354
     48  N         20.7880    4.2800   62.6020 N.3    74  ARG74      -0.1245
     49  CA        20.1720    5.3540   61.8250 C.3    74  ARG74       0.1563
     50  C         20.0490    4.9720   60.3550 C.2    74  ARG74       0.2260
     51  O         20.8020    4.1450   59.8640 O.2    74  ARG74      -0.2867
     52  CB        21.0130    6.6330   61.9470 C.3    74  ARG74       0.0307
     53  CG        21.0470    7.2320   63.3530 C.3    74  ARG74       0.0489
     54  CD        20.1610    8.4710   63.4630 C.3    74  ARG74       0.2205
     55  NE        20.9210    9.6930   63.2600 N.pl3  74  ARG74      -0.0865
     56  CZ        20.4120   10.9210   63.3100 C.cat  74  ARG74       0.5346
     57  NH1       19.1210   11.1230   63.5510 N.pl3  74  ARG74       0.1354
     58  NH2       21.2150   11.9600   63.1330 N.pl3  74  ARG74       0.1354
     59  N         24.1760    7.8170   58.6680 N.3    97  TRP97      -0.1241
     60  CA        23.8590    8.9630   59.5210 C.3    97  TRP97       0.1605
     61  C         24.0820   10.3590   58.9330 C.2    97  TRP97       0.2264
     62  O         24.2440   11.3290   59.6730 O.2    97  TRP97      -0.2867
     63  CB        24.6130    8.8500   60.8540 C.3    97  TRP97       0.0550
     64  CG        26.0360    8.3740   60.7330 C.ar   97  TRP97       0.0003
     65  CD1       26.5430    7.1860   61.1770 C.ar   97  TRP97       0.0946
     66  CD2       27.1280    9.0720   60.1240 C.ar   97  TRP97       0.0152
     67  NE1       27.8830    7.1010   60.8830 N.ar   97  TRP97      -0.2442
     68  CE2       28.2660    8.2450   60.2340 C.ar   97  TRP97       0.0810
     69  CE3       27.2550   10.3170   59.4930 C.ar   97  TRP97       0.0012
     70  CZ2       29.5180    8.6240   59.7340 C.ar   97  TRP97       0.0191
     71  CZ3       28.4880   10.6910   59.0000 C.ar   97  TRP97       0.0001
     72  CH2       29.6090    9.8470   59.1220 C.ar   97  TRP97       0.0015
     73  N         34.6620   12.1800   59.9490 N.3   141  ILE141     -0.1245
     74  CA        33.2350   12.3280   59.6940 C.3   141  ILE141      0.1561
     75  C         32.8490   12.8020   58.2930 C.2   141  ILE141      0.2260
     76  O         32.4040   13.9370   58.1190 O.2   141  ILE141     -0.2867
     77  CB        32.5920   13.2750   60.7210 C.3   141  ILE141      0.0252
     78  CG1       33.0640   12.9070   62.1290 C.3   141  ILE141      0.0019
     79  CG2       31.0840   13.1580   60.6570 C.3   141  ILE141      0.0019
     80  CD1       32.4870   13.7810   63.2250 C.3   141  ILE141      0.0001
     81  N         30.6800   13.6600   55.5120 N.3   143  ARG143     -0.1245
     82  CA        29.2770   14.0400   55.6770 C.3   143  ARG143      0.1563
     83  C         28.7110   14.8580   54.5110 C.2   143  ARG143      0.2260
     84  O         29.4740   15.4450   53.7440 O.2   143  ARG143     -0.2867
     85  CB        29.1540   14.8310   56.9760 C.3   143  ARG143      0.0307
     86  CG        30.1820   15.9460   57.0850 C.3   143  ARG143      0.0489
     87  CD        30.2830   16.4790   58.4960 C.3   143  ARG143      0.2205
     88  NE        31.1650   17.6390   58.5950 N.pl3 143  ARG143     -0.0865
     89  CZ        32.4790   17.5880   58.7880 C.cat 143  ARG143      0.5346
     90  NH1       33.0950   16.4180   58.9080 N.pl3 143  ARG143      0.1354
     91  NH2       33.1770   18.7160   58.8770 N.pl3 143  ARG143      0.1354
     92  N         22.2420   16.9530   54.0670 N.3   146  GLU146     -0.1245
     93  CA        21.1320   16.7420   55.0000 C.3   146  GLU146      0.1567
     94  C         19.8420   17.3670   54.4360 C.2   146  GLU146      0.2260
     95  O         18.9540   17.7770   55.1900 O.2   146  GLU146     -0.2867
     96  CB        21.4330   17.3290   56.3990 C.3   146  GLU146      0.0388
     97  CG        22.8200   16.9800   56.9520 C.3   146  GLU146      0.1160
     98  CD        23.0660   15.4830   57.0970 C.2   146  GLU146      0.3649
     99  OE1       22.3100   14.6700   56.5190 O.co2 146  GLU146     -0.2457
    100  OE2       24.0370   15.1140   57.7870 O.co2 146  GLU146     -0.2457
    101  N         35.1750   20.1840   61.7730 N.3   165  ALA165     -0.1245
    102  CA        33.9850   21.0020   61.6410 C.3   165  ALA165      0.1562
    103  C         34.2670   22.3620   62.2620 C.2   165  ALA165      0.2260
    104  O         33.4520   23.2820   62.1540 O.2   165  ALA165     -0.2867
    105  CB        32.8240   20.3440   62.3560 C.3   165  ALA165      0.0290
    106  N         29.4010   23.3360   55.0300 N.3   195  GLU195     -0.1231
    107  CA        28.6560   22.2780   55.6950 C.3   195  GLU195      0.1699
    108  C         27.1590   22.3280   55.4110 C.2   195  GLU195      0.2592
    109  O         26.5730   23.4050   55.2380 O.2   195  GLU195     -0.2718
    110  CB        28.9020   22.3100   57.2110 C.3   195  GLU195      0.0402
    111  CG        29.8300   21.1880   57.6940 C.3   195  GLU195      0.1161
    112  CD        30.9790   21.7180   58.5070 C.2   195  GLU195      0.3649
    113  OE1       31.9020   20.9460   58.8480 O.co2 195  GLU195     -0.2457
    114  OE2       30.9520   22.9300   58.8030 O.co2 195  GLU195     -0.2457
    115  N         26.5650   21.1400   55.3420 N.am  196  GLU196     -0.1979
    116  CA        25.1370   20.9570   55.1210 C.3   196  GLU196      0.1602
    117  C         24.5230   21.9830   54.1750 C.2   196  GLU196      0.2287
    118  O         23.7690   22.8570   54.5900 O.2   196  GLU196     -0.2864
    119  CB        24.4280   20.9980   56.4750 C.3   196  GLU196      0.0415
    120  CG        25.1970   20.2410   57.5670 C.3   196  GLU196      0.1163
    121  CD        24.5980   20.4170   58.9600 C.2   196  GLU196      0.3649
    122  OE1       24.3480   21.5690   59.3650 O.co2 196  GLU196     -0.2457
    123  OE2       24.3910   19.3950   59.6530 O.co2 196  GLU196     -0.2457
    124  N         26.3700   26.3460   55.5640 N.3   211  ARG211     -0.1245
    125  CA        26.6910   26.7550   56.9250 C.3   211  ARG211      0.1563
    126  C         28.1990   26.7560   57.1910 C.2   211  ARG211      0.2260
    127  O         28.8630   25.7310   57.0140 O.2   211  ARG211     -0.2867
    128  CB        25.9910   25.7890   57.8920 C.3   211  ARG211      0.0307
    129  CG        26.6890   25.5500   59.2330 C.3   211  ARG211      0.0489
    130  CD        25.9460   24.5000   60.0260 C.3   211  ARG211      0.2205
    131  NE        26.5290   24.2360   61.3410 N.pl3 211  ARG211     -0.0865
    132  CZ        26.0600   23.3300   62.1930 C.cat 211  ARG211      0.5346
    133  NH1       25.0000   22.6000   61.8710 N.pl3 211  ARG211      0.1354
    134  NH2       26.6520   23.1420   63.3650 N.pl3 211  ARG211      0.1354
    135  N         30.4460   26.4650   59.7690 N.3   213  ASN213     -0.1240
    136  CA        30.4870   26.0950   61.1640 C.3   213  ASN213      0.1653
    137  C         31.6720   26.5660   61.9910 C.2   213  ASN213      0.2266
    138  O         31.6620   26.3830   63.2080 O.2   213  ASN213     -0.2867
    139  CB        30.3620   24.5870   61.3020 C.3   213  ASN213      0.1155
    140  CG        30.0010   24.1780   62.7030 C.2   213  ASN213      0.2627
    141  OD1       28.8870   24.4220   63.1590 O.2   213  ASN213     -0.2716
    142  ND2       30.9440   23.5660   63.4040 N.am  213  ASN213     -0.0877
    143  N         18.2590   27.9820   68.8520 N.3   289  ARG289     -0.1245
    144  CA        17.3980   27.5530   67.7610 C.3   289  ARG289      0.1563
    145  C         15.9330   27.7260   68.1300 C.2   289  ARG289      0.2260
    146  O         15.2070   26.7540   68.3090 O.2   289  ARG289     -0.2867
    147  CB        17.6960   26.0940   67.4180 C.3   289  ARG289      0.0307
    148  CG        19.1140   25.8930   66.9020 C.3   289  ARG289      0.0489
    149  CD        19.4820   24.4280   66.7300 C.3   289  ARG289      0.2205
    150  NE        20.8030   24.3170   66.1220 N.pl3 289  ARG289     -0.0865
    151  CZ        21.4050   23.1750   65.8140 C.cat 289  ARG289      0.5346
    152  NH1       20.8060   22.0140   66.0510 N.pl3 289  ARG289      0.1354
    153  NH2       22.6120   23.2000   65.2690 N.pl3 289  ARG289      0.1354
    154  N         17.0840   22.8680   62.0500 N.3   323  TYR323     -0.1241
    155  CA        17.5500   22.8830   60.6690 C.3   323  TYR323      0.1605
    156  C         16.4510   23.3950   59.7410 C.2   323  TYR323      0.2264
    157  O         15.2720   23.3290   60.0660 O.2   323  TYR323     -0.2867
    158  CB        17.9450   21.4640   60.2300 C.3   323  TYR323      0.0534
    159  CG        19.3480   21.0490   60.6080 C.ar  323  TYR323     -0.0201
    160  CD1       20.0590   21.7280   61.6090 C.ar  323  TYR323     -0.0009
    161  CD2       19.9690   19.9730   59.9740 C.ar  323  TYR323     -0.0009
    162  CE1       21.3420   21.3470   61.9600 C.ar  323  TYR323      0.0417
    163  CE2       21.2560   19.5830   60.3230 C.ar  323  TYR323      0.0417
    164  CZ        21.9360   20.2740   61.3190 C.ar  323  TYR323      0.1957
    165  OH        23.2010   19.8710   61.6870 O.3   323  TYR323     -0.2866
@<TRIPOS>BOND
     1    84    83    2
     2    92    93    1
     3   117   118    2
     4   117   116    1
     5    94    93    1
     6    94    95    2
     7    83    82    1
     8    93    96    1
     9   106   107    1
    10   116   115    1
    11   116   119    1
    12   109   108    2
    13   115   108   am
    14   108   107    1
    15    81    82    1
    16   124   125    1
    17    82    85    1
    18   107   110    1
    19    96    97    1
    20   119   120    1
    21    99    98   ar
    22   125   126    1
    23   125   128    1
    24    97    98    1
    25    85    86    1
    26   127   126    2
    27    86    87    1
    28    98   100   ar
    29   110   111    1
    30   120   121    1
    31   111   112    1
    32    28    26    1
    33   128   129    1
    34    15    14    2
    35    76    75    2
    36    75    74    1
    37    87    88    1
    38   112   114   ar
    39   112   113   ar
    40    26    27    1
    41    26    25    1
    42    88    89    2
    43    59    60    1
    44    89    91    1
    45    89    90    1
    46    14    13    1
    47    61    60    1
    48    61    62    2
    49   121   122   ar
    50   121   123   ar
    51    71    72   ar
    52    71    69   ar
    53    21    22    1
    54    72    70   ar
    55   129   130    1
    56    69    66   ar
    57    22    25    1
    58    22    23    1
    59    60    63    1
    60    74    73    1
    61    74    77    1
    62    70    68   ar
    63   156   157    2
    64   156   155    1
    65   135   136    1
    66    16    13    1
    67    16    17    1
    68    51    50    2
    69   161   163   ar
    70   161   159   ar
    71   130   131    1
    72    13    12    1
    73    66    68   ar
    74    66    64   ar
    75   158   159    1
    76   158   155    1
    77    68    67   ar
    78   163   164   ar
    79    50    49    1
    80   159   160   ar
    81    79    77    1
    82   155   154    1
    83    77    78    1
    84    64    63    1
    85    64    65   ar
    86    23    24    2
    87     4     3    2
    88    17    18    1
    89    67    65   ar
    90   136   139    1
    91   136   137    1
    92   139   140    1
    93   164   165    1
    94   164   162   ar
    95    12     3   am
    96   131   132    2
    97   160   162   ar
    98     3     2    1
    99   102   101    1
   100   102   103    1
   101   102   105    1
   102    49    52    1
   103    49    48    1
   104   133   132    1
   105    52    53    1
   106   137   138    2
   107    19    18   ar
   108    78    80    1
   109    18    20   ar
   110   104   103    2
   111   132   134    1
   112   140   141    2
   113   140   142   am
   114    43    42    1
   115    43    44    1
   116     1     2    1
   117     2     5    1
   118    58    56    1
   119    55    56    2
   120    55    54    1
   121    42    41    1
   122    56    57    1
   123    53    54    1
   124    44    45    2
   125    32    31    2
   126    11     9    1
   127    41    38    1
   128     5     6    1
   129    38    39    1
   130    38    37    1
   131    45    46    1
   132    45    47    1
   133     8     9    2
   134     8     7    1
   135     9    10    1
   136    31    37   am
   137    31    30    1
   138    39    40    2
   139   153   151    1
   140     6     7    1
   141    33    30    1
   142    33    34    1
   143   151   152    1
   144   151   150    2
   145    30    29    1
   146    34    35   ar
   147    34    36   ar
   148   150   149    1
   149   149   148    1
   150   148   147    1
   151   147   144    1
   152   144   145    1
   153   144   143    1
   154   145   146    2
