@<TRIPOS>MOLECULE
tmp/1xoiB02.pdb
 107 106 0 0 0
SMALL
GASTEIGER

@<TRIPOS>ATOM
      1  N         12.9720   33.4580   78.8090 N.3    15  PHE15      -0.1227
      2  CA        12.2240   34.7090   78.9100 C.3    15  PHE15       0.1736
      3  C         10.7420   34.6700   78.5330 C.2    15  PHE15       0.2596
      4  O          9.9410   35.4120   79.0990 O.2    15  PHE15      -0.2718
      5  CB        12.9190   35.7960   78.0810 C.3    15  PHE15       0.0547
      6  CG        14.2920   36.1520   78.5740 C.ar   15  PHE15      -0.0202
      7  CD1       14.4630   36.7920   79.7960 C.ar   15  PHE15      -0.0042
      8  CD2       15.4150   35.8450   77.8130 C.ar   15  PHE15      -0.0042
      9  CE1       15.7380   37.1240   80.2580 C.ar   15  PHE15      -0.0003
     10  CE2       16.6920   36.1690   78.2590 C.ar   15  PHE15      -0.0003
     11  CZ        16.8540   36.8100   79.4840 C.ar   15  PHE15      -0.0000
     12  N         10.3710   33.8170   77.5870 N.am   16  THR16      -0.1939
     13  CA         8.9740   33.7470   77.1710 C.3    16  THR16       0.2028
     14  C          8.1370   32.7190   77.9180 C.2    16  THR16       0.2642
     15  O          6.9920   33.0020   78.2850 O.2    16  THR16      -0.2714
     16  CB         8.8690   33.4780   75.6730 C.3    16  THR16       0.1808
     17  OG1        9.6650   34.4400   74.9760 O.3    16  THR16      -0.2208
     18  CG2        7.4120   33.5870   75.2040 C.3    16  THR16       0.0379
     19  N          8.7000   31.5360   78.1510 N.am   17  LEU17      -0.1963
     20  CA         7.9830   30.4750   78.8590 C.3    17  LEU17       0.1728
     21  C          8.3280   30.3830   80.3460 C.2    17  LEU17       0.2616
     22  O          7.6750   29.6520   81.0930 O.2    17  LEU17      -0.2715
     23  CB         8.2400   29.1140   78.1900 C.3    17  LEU17       0.0311
     24  CG         7.5420   28.8310   76.8520 C.3    17  LEU17       0.0022
     25  CD1        6.0380   29.0330   77.0090 C.3    17  LEU17       0.0001
     26  CD2        8.0920   29.7510   75.7690 C.3    17  LEU17       0.0001
     27  N          9.3560   31.1170   80.7620 N.am   18  VAL18      -0.1977
     28  CA         9.8060   31.1360   82.1540 C.3    18  VAL18       0.1596
     29  C         10.1180   29.7310   82.6810 C.2    18  VAL18       0.2287
     30  O          9.6800   29.3470   83.7660 O.2    18  VAL18      -0.2864
     31  CB         8.7460   31.7960   83.0900 C.3    18  VAL18       0.0276
     32  CG1        9.4170   32.2990   84.3600 C.3    18  VAL18       0.0022
     33  CG2        8.0390   32.9420   82.3730 C.3    18  VAL18       0.0022
     34  N          4.6210   21.2870   75.9390 N.3    27  ARG27      -0.1245
     35  CA         3.9110   22.4660   75.4550 C.3    27  ARG27       0.1563
     36  C          4.8970   23.6330   75.4100 C.2    27  ARG27       0.2260
     37  O          4.9920   24.3350   74.4090 O.2    27  ARG27      -0.2867
     38  CB         2.7260   22.8120   76.3740 C.3    27  ARG27       0.0307
     39  CG         1.9170   24.0100   75.8610 C.3    27  ARG27       0.0489
     40  CD         0.7530   24.4430   76.7640 C.3    27  ARG27       0.2205
     41  NE         1.1080   25.0550   78.0630 N.pl3  27  ARG27      -0.0865
     42  CZ         2.2750   25.6270   78.3830 C.cat  27  ARG27       0.5346
     43  NH1        3.2800   25.6980   77.5240 N.pl3  27  ARG27       0.1354
     44  NH2        2.4230   26.1710   79.5850 N.pl3  27  ARG27       0.1354
     45  N          6.0580   26.0040   72.2540 N.3    31  PHE31      -0.1241
     46  CA         5.9560   27.4560   72.2740 C.3    31  PHE31       0.1605
     47  C          7.3090   28.1180   72.0150 C.2    31  PHE31       0.2264
     48  O          7.3910   29.0950   71.2760 O.2    31  PHE31      -0.2867
     49  CB         5.3920   27.9470   73.6150 C.3    31  PHE31       0.0534
     50  CG         3.8970   27.8450   73.7220 C.ar   31  PHE31      -0.0203
     51  CD1        3.0790   28.3010   72.6880 C.ar   31  PHE31      -0.0042
     52  CD2        3.3010   27.3170   74.8660 C.ar   31  PHE31      -0.0042
     53  CE1        1.6990   28.2320   72.7880 C.ar   31  PHE31      -0.0003
     54  CE2        1.9100   27.2450   74.9800 C.ar   31  PHE31      -0.0003
     55  CZ         1.1070   27.7040   73.9340 C.ar   31  PHE31      -0.0000
     56  N          7.9230   30.4700   68.7620 N.3    35  HIS35      -0.1241
     57  CA         8.4020   31.8440   68.8620 C.3    35  HIS35       0.1621
     58  C          9.6930   32.0520   68.0890 C.2    35  HIS35       0.2264
     59  O          9.8870   33.0900   67.4650 O.2    35  HIS35      -0.2867
     60  CB         8.6120   32.2460   70.3290 C.3    35  HIS35       0.0745
     61  CG         7.3590   32.6970   71.0140 C.ar   35  HIS35       0.0817
     62  ND1        6.4290   31.8150   71.5240 N.ar   35  HIS35      -0.2268
     63  CD2        6.8580   33.9350   71.2240 C.ar   35  HIS35       0.1154
     64  CE1        5.4090   32.4930   72.0160 C.ar   35  HIS35       0.1986
     65  NE2        5.6440   33.7810   71.8470 N.ar   35  HIS35      -0.2212
     66  N          8.5500   32.2100   64.5380 N.3    38  ARG38      -0.1245
     67  CA         7.7520   33.4200   64.3710 C.3    38  ARG38       0.1563
     68  C          8.6030   34.6780   64.1840 C.2    38  ARG38       0.2260
     69  O          8.2690   35.5370   63.3700 O.2    38  ARG38      -0.2867
     70  CB         6.8300   33.6080   65.5790 C.3    38  ARG38       0.0307
     71  CG         5.7300   34.6190   65.3520 C.3    38  ARG38       0.0489
     72  CD         4.8720   34.8230   66.5840 C.3    38  ARG38       0.2205
     73  NE         5.5200   35.6540   67.5910 N.pl3  38  ARG38      -0.0865
     74  CZ         4.9860   35.9380   68.7740 C.cat  38  ARG38       0.5346
     75  NH1        3.7970   35.4520   69.1030 N.pl3  38  ARG38       0.1354
     76  NH2        5.6260   36.7270   69.6190 N.pl3  38  ARG38       0.1354
     77  N         -4.7600   27.8720   75.5250 N.3   163  TYR163     -0.1227
     78  CA        -3.4090   28.1680   76.0130 C.3   163  TYR163      0.1736
     79  C         -2.6760   29.2640   75.2460 C.2   163  TYR163      0.2596
     80  O         -1.4850   29.4920   75.4660 O.2   163  TYR163     -0.2718
     81  CB        -2.5630   26.8950   76.0340 C.3   163  TYR163      0.0548
     82  CG        -3.2500   25.7740   76.7800 C.ar  163  TYR163     -0.0200
     83  CD1       -3.5530   24.5720   76.1450 C.ar  163  TYR163     -0.0009
     84  CD2       -3.6840   25.9540   78.0930 C.ar  163  TYR163     -0.0009
     85  CE1       -4.2830   23.5830   76.7960 C.ar  163  TYR163      0.0417
     86  CE2       -4.4120   24.9750   78.7520 C.ar  163  TYR163      0.0417
     87  CZ        -4.7140   23.7970   78.1040 C.ar  163  TYR163      0.1957
     88  OH        -5.4800   22.8420   78.7490 O.3   163  TYR163     -0.2866
     89  N         -3.3900   29.9370   74.3490 N.am  164  GLY164     -0.1942
     90  CA        -2.7850   31.0140   73.5960 C.3   164  GLY164      0.2014
     91  C         -2.3790   30.6260   72.1990 C.2   164  GLY164      0.2639
     92  O         -1.9390   29.5070   71.9610 O.2   164  GLY164     -0.2714
     93  N         -2.5270   31.5660   71.2760 N.am  165  ASN165     -0.1958
     94  CA        -2.1800   31.3490   69.8840 C.3   165  ASN165      0.1804
     95  C         -1.0530   32.3060   69.5240 C.2   165  ASN165      0.2463
     96  O         -1.2790   33.4910   69.3190 O.2   165  ASN165     -0.2730
     97  CB        -3.4200   31.5840   69.0020 C.3   165  ASN165      0.1195
     98  CG        -3.1050   31.5640   67.5210 C.2   165  ASN165      0.2630
     99  OD1       -2.1410   30.9360   67.0890 O.2   165  ASN165     -0.2716
    100  ND2       -3.9310   32.2480   66.7280 N.am  165  ASN165     -0.0877
    101  N          0.1880   31.7970   69.4420 N.am  166  PRO166     -0.2727
    102  CA         1.3400   32.6420   69.1070 C.3   166  PRO166      0.1402
    103  C          1.3120   33.1820   67.6820 C.2   166  PRO166      0.2269
    104  O          1.9840   34.1650   67.3720 O.2   166  PRO166     -0.2865
    105  CB         2.5240   31.7110   69.3450 C.3   166  PRO166      0.0296
    106  CG         1.9750   30.3870   68.9450 C.3   166  PRO166      0.0237
    107  CD         0.5960   30.3870   69.5760 C.3   166  PRO166      0.0939
@<TRIPOS>BOND
     1    69    68    2
     2    68    67    1
     3    67    66    1
     4    67    70    1
     5    71    70    1
     6    71    72    1
     7    72    73    1
     8   100    98   am
     9    99    98    2
    10   104   103    2
    11    59    58    2
    12    98    97    1
    13    73    74    2
    14   103   102    1
    15    58    57    1
    16    56    57    1
    17    74    75    1
    18    74    76    1
    19    57    60    1
    20   106   105    1
    21   106   107    1
    22    97    94    1
    23   102   105    1
    24   102   101    1
    25    96    95    2
    26   101    95   am
    27   101   107    1
    28    95    94    1
    29    94    93    1
    30    60    61    1
    31    61    63   ar
    32    61    62   ar
    33    63    65   ar
    34    48    47    2
    35    93    91   am
    36    62    64   ar
    37    65    64   ar
    38    92    91    2
    39    47    46    1
    40    91    90    1
    41    45    46    1
    42    46    49    1
    43    51    53   ar
    44    51    50   ar
    45    53    55   ar
    46    90    89    1
    47    49    50    1
    48    50    52   ar
    49    55    54   ar
    50    89    79   am
    51    37    36    2
    52    52    54   ar
    53    17    16    1
    54    18    16    1
    55    79    80    2
    56    79    78    1
    57    36    35    1
    58    35    34    1
    59    35    38    1
    60    77    78    1
    61    16    13    1
    62    26    24    1
    63    39    38    1
    64    39    40    1
    65    78    81    1
    66    81    82    1
    67    83    82   ar
    68    83    85   ar
    69    40    41    1
    70    82    84   ar
    71    85    87   ar
    72    24    25    1
    73    24    23    1
    74    13    12    1
    75    13    14    1
    76    43    42    1
    77    12     3   am
    78     8    10   ar
    79     8     6   ar
    80    14    19   am
    81    14    15    2
    82    41    42    2
    83     5     6    1
    84     5     2    1
    85    84    86   ar
    86    87    88    1
    87    87    86   ar
    88    19    20    1
    89    23    20    1
    90    10    11   ar
    91    42    44    1
    92     3     2    1
    93     3     4    2
    94     6     7   ar
    95     1     2    1
    96    20    21    1
    97    11     9   ar
    98     7     9   ar
    99    21    27   am
   100    21    22    2
   101    27    28    1
   102    28    29    1
   103    28    31    1
   104    33    31    1
   105    29    30    2
   106    31    32    1
