@<TRIPOS>MOLECULE
tmp/1xoiB03.pdb
 107 108 0 0 0
SMALL
GASTEIGER

@<TRIPOS>ATOM
      1  N          8.5500   32.2100   64.5380 N.3    38  ARG38      -0.1245
      2  CA         7.7520   33.4200   64.3710 C.3    38  ARG38       0.1563
      3  C          8.6030   34.6780   64.1840 C.2    38  ARG38       0.2260
      4  O          8.2690   35.5370   63.3700 O.2    38  ARG38      -0.2867
      5  CB         6.8300   33.6080   65.5790 C.3    38  ARG38       0.0307
      6  CG         5.7300   34.6190   65.3520 C.3    38  ARG38       0.0489
      7  CD         4.8720   34.8230   66.5840 C.3    38  ARG38       0.2205
      8  NE         5.5200   35.6540   67.5910 N.pl3  38  ARG38      -0.0865
      9  CZ         4.9860   35.9380   68.7740 C.cat  38  ARG38       0.5346
     10  NH1        3.7970   35.4520   69.1030 N.pl3  38  ARG38       0.1354
     11  NH2        5.6260   36.7270   69.6190 N.pl3  38  ARG38       0.1354
     12  N          9.4260   35.7880   60.6980 N.3    41  LEU41      -0.1231
     13  CA         8.3730   36.3340   59.8440 C.3    41  LEU41       0.1693
     14  C          8.2900   37.8590   59.9240 C.2    41  LEU41       0.2591
     15  O          7.9780   38.5240   58.9380 O.2    41  LEU41      -0.2718
     16  CB         7.0060   35.7720   60.2530 C.3    41  LEU41       0.0284
     17  CG         6.6380   34.3140   59.9880 C.3    41  LEU41       0.0019
     18  CD1        5.3750   33.9620   60.7670 C.3    41  LEU41       0.0001
     19  CD2        6.4340   34.0990   58.5000 C.3    41  LEU41       0.0001
     20  N          8.5700   38.3890   61.1140 N.am   42  VAL42      -0.1980
     21  CA         8.4750   39.8170   61.4010 C.3    42  VAL42       0.1595
     22  C          9.0600   40.7760   60.3810 C.2    42  VAL42       0.2287
     23  O          8.3450   41.6170   59.8410 O.2    42  VAL42      -0.2864
     24  CB         9.0820   40.1340   62.7830 C.3    42  VAL42       0.0276
     25  CG1        8.9900   41.6270   63.0670 C.3    42  VAL42       0.0022
     26  CG2        8.3440   39.3490   63.8520 C.3    42  VAL42       0.0022
     27  N          7.1620   40.6200   57.2040 N.3    45  TRP45      -0.1241
     28  CA         5.7530   40.9580   57.3220 C.3    45  TRP45       0.1605
     29  C          5.6360   42.4770   57.2840 C.2    45  TRP45       0.2264
     30  O          4.8050   43.0210   56.5670 O.2    45  TRP45      -0.2867
     31  CB         5.1720   40.4010   58.6270 C.3    45  TRP45       0.0550
     32  CG         3.6720   40.3370   58.6480 C.ar   45  TRP45       0.0003
     33  CD1        2.8240   40.5210   57.5880 C.ar   45  TRP45       0.0946
     34  CD2        2.8440   39.9830   59.7630 C.ar   45  TRP45       0.0152
     35  NE1        1.5240   40.2950   57.9720 N.ar   45  TRP45      -0.2442
     36  CE2        1.5050   39.9620   59.3000 C.ar   45  TRP45       0.0810
     37  CE3        3.1020   39.6720   61.1060 C.ar   45  TRP45       0.0012
     38  CZ2        0.4300   39.6450   60.1340 C.ar   45  TRP45       0.0191
     39  CZ3        2.0320   39.3550   61.9330 C.ar   45  TRP45       0.0001
     40  CH2        0.7090   39.3440   61.4410 C.ar   45  TRP45       0.0015
     41  N         -2.5270   31.5660   71.2760 N.3   165  ASN165     -0.1226
     42  CA        -2.1800   31.3490   69.8840 C.3   165  ASN165      0.1770
     43  C         -1.0530   32.3060   69.5240 C.2   165  ASN165      0.2439
     44  O         -1.2790   33.4910   69.3190 O.2   165  ASN165     -0.2733
     45  CB        -3.4200   31.5840   69.0020 C.3   165  ASN165      0.1168
     46  CG        -3.1050   31.5640   67.5210 C.2   165  ASN165      0.2627
     47  OD1       -2.1410   30.9360   67.0890 O.2   165  ASN165     -0.2716
     48  ND2       -3.9310   32.2480   66.7280 N.am  165  ASN165     -0.0877
     49  N          0.1880   31.7970   69.4420 N.am  166  PRO166     -0.2718
     50  CA         1.3400   32.6420   69.1070 C.3   166  PRO166      0.1535
     51  C          1.3120   33.1820   67.6820 C.2   166  PRO166      0.2599
     52  O          1.9840   34.1650   67.3720 O.2   166  PRO166     -0.2715
     53  CB         2.5240   31.7110   69.3450 C.3   166  PRO166      0.0310
     54  CG         1.9750   30.3870   68.9450 C.3   166  PRO166      0.0237
     55  CD         0.5960   30.3870   69.5760 C.3   166  PRO166      0.0939
     56  N          0.5130   32.5490   66.8250 N.am  167  TRP167     -0.1960
     57  CA         0.4340   32.9500   65.4240 C.3   167  TRP167      0.1771
     58  C         -0.5340   34.0900   65.1090 C.2   167  TRP167      0.2620
     59  O         -0.6690   34.4770   63.9540 O.2   167  TRP167     -0.2715
     60  CB         0.1170   31.7280   64.5570 C.3   167  TRP167      0.0590
     61  CG         1.0490   30.5810   64.8020 C.ar  167  TRP167      0.0006
     62  CD1        0.7480   29.3940   65.4040 C.ar  167  TRP167      0.0946
     63  CD2        2.4460   30.5270   64.4910 C.ar  167  TRP167      0.0152
     64  NE1        1.8700   28.6030   65.4900 N.ar  167  TRP167     -0.2442
     65  CE2        2.9280   29.2740   64.9360 C.ar  167  TRP167      0.0810
     66  CE3        3.3400   31.4150   63.8790 C.ar  167  TRP167      0.0012
     67  CZ2        4.2680   28.8860   64.7890 C.ar  167  TRP167      0.0191
     68  CZ3        4.6770   31.0270   63.7300 C.ar  167  TRP167      0.0001
     69  CH2        5.1230   29.7750   64.1850 C.ar  167  TRP167      0.0015
     70  N         -1.2010   34.6280   66.1260 N.am  168  GLU168     -0.1963
     71  CA        -2.1210   35.7390   65.9190 C.3   168  GLU168      0.1733
     72  C         -1.5830   36.9750   66.6200 C.2   168  GLU168      0.2616
     73  O         -0.9340   36.8800   67.6600 O.2   168  GLU168     -0.2715
     74  CB        -3.5210   35.4230   66.4630 C.3   168  GLU168      0.0429
     75  CG        -3.5450   35.1030   67.9440 C.3   168  GLU168      0.1163
     76  CD        -4.9380   34.8990   68.5000 C.2   168  GLU168      0.3649
     77  OE1       -5.8200   34.3980   67.7710 O.co2 168  GLU168     -0.2457
     78  OE2       -5.1430   35.2270   69.6810 O.co2 168  GLU168     -0.2457
     79  N         -1.8620   38.1350   66.0370 N.am  169  LYS169     -0.1963
     80  CA        -1.4240   39.4030   66.5910 C.3   169  LYS169      0.1728
     81  C         -2.6040   40.3600   66.7390 C.2   169  LYS169      0.2616
     82  O         -3.1890   40.8090   65.7500 O.2   169  LYS169     -0.2715
     83  CB        -0.3610   40.0340   65.6910 C.3   169  LYS169      0.0311
     84  CG         0.1080   41.4080   66.1530 C.3   169  LYS169      0.0038
     85  CD         0.9610   41.3150   67.4110 C.3   169  LYS169      0.0206
     86  CE         1.3660   42.6930   67.9500 C.3   169  LYS169      0.1093
     87  NZ         0.2870   43.3730   68.7240 N.3   169  LYS169     -0.1314
     88  N         -2.9530   40.6580   67.9840 N.am  170  SER170     -0.1950
     89  CA        -4.0360   41.5880   68.2660 C.3   170  SER170      0.1924
     90  C         -3.6590   42.9710   67.7200 C.2   170  SER170      0.2314
     91  O         -2.5430   43.4440   67.9290 O.2   170  SER170     -0.2863
     92  CB        -4.2620   41.6760   69.7680 C.3   170  SER170      0.2116
     93  OG        -5.1610   42.7210   70.0680 O.3   170  SER170     -0.2180
     94  N         -5.1630   46.2350   68.3840 N.3   172  PRO172     -0.2116
     95  CA        -6.0230   47.1450   69.1560 C.3   172  PRO172      0.1372
     96  C         -6.4060   48.4470   68.4560 C.2   172  PRO172      0.2244
     97  O         -7.5810   48.7940   68.3920 O.2   172  PRO172     -0.2868
     98  CB        -5.2060   47.4150   70.4250 C.3   172  PRO172      0.0268
     99  CG        -4.4290   46.1650   70.5960 C.3   172  PRO172      0.0207
    100  CD        -3.9880   45.8440   69.1810 C.3   172  PRO172      0.0892
    101  N          0.0420   36.1480   60.1120 N.3   207  PRO207     -0.2116
    102  CA         0.9100   36.2130   58.9330 C.3   207  PRO207      0.1372
    103  C          0.7050   35.0420   57.9760 C.2   207  PRO207      0.2244
    104  O          0.4880   33.9020   58.4000 O.2   207  PRO207     -0.2868
    105  CB         2.3070   36.2170   59.5360 C.3   207  PRO207      0.0268
    106  CG         2.1310   35.3070   60.7100 C.3   207  PRO207      0.0207
    107  CD         0.8210   35.7920   61.3110 C.3   207  PRO207      0.0892
@<TRIPOS>BOND
     1    30    29    2
     2    27    28    1
     3    29    28    1
     4    28    31    1
     5    33    35   ar
     6    33    32   ar
     7    35    36   ar
     8   103   104    2
     9   103   102    1
    10    19    17    1
    11    31    32    1
    12    32    34   ar
    13   102   105    1
    14   102   101    1
    15    15    14    2
    16    36    34   ar
    17    36    38   ar
    18   105   106    1
    19    34    37   ar
    20    23    22    2
    21    13    14    1
    22    13    16    1
    23    13    12    1
    24    14    20   am
    25    17    16    1
    26    17    18    1
    27   101   107    1
    28    38    40   ar
    29    22    21    1
    30   106   107    1
    31    37    39   ar
    32    20    21    1
    33    21    24    1
    34    40    39   ar
    35    24    25    1
    36    24    26    1
    37     4     3    2
    38    68    66   ar
    39    68    69   ar
    40    66    63   ar
    41    59    58    2
    42     3     2    1
    43    69    67   ar
    44     2     1    1
    45     2     5    1
    46    63    61   ar
    47    63    65   ar
    48    60    61    1
    49    60    57    1
    50    67    65   ar
    51    61    62   ar
    52    65    64   ar
    53    58    57    1
    54    58    70   am
    55     6     5    1
    56     6     7    1
    57    62    64   ar
    58    57    56    1
    59    83    84    1
    60    83    80    1
    61    82    81    2
    62    71    70    1
    63    71    74    1
    64    71    72    1
    65    79    80    1
    66    79    72   am
    67    84    85    1
    68    74    75    1
    69     7     8    1
    70    80    81    1
    71    72    73    2
    72    48    46   am
    73    81    88   am
    74    56    51   am
    75    47    46    2
    76    52    51    2
    77    85    86    1
    78    46    45    1
    79     8     9    2
    80    51    50    1
    81    90    91    2
    82    90    89    1
    83    77    76   ar
    84    75    76    1
    85    86    87    1
    86    88    89    1
    87    89    92    1
    88    94    95    1
    89    94   100    1
    90    97    96    2
    91    96    95    1
    92    76    78   ar
    93     9    10    1
    94     9    11    1
    95    54    53    1
    96    54    55    1
    97    45    42    1
    98    50    53    1
    99    50    49    1
   100    95    98    1
   101   100    99    1
   102    44    43    2
   103    49    43   am
   104    49    55    1
   105    43    42    1
   106    92    93    1
   107    42    41    1
   108    98    99    1
