@<TRIPOS>MOLECULE
tmp/1xonB00.pdb
 192 185 0 0 0
SMALL
GASTEIGER

@<TRIPOS>ATOM
      1  N          7.8780   13.9190   11.6200 N.3    74  TYR74      -0.1227
      2  CA         7.7040   12.4740   11.5920 C.3    74  TYR74       0.1736
      3  C          6.7200   11.9780   12.6410 C.2    74  TYR74       0.2595
      4  O          5.7390   11.3170   12.2970 O.2    74  TYR74      -0.2718
      5  CB         9.0520   11.7450   11.7330 C.3    74  TYR74       0.0548
      6  CG         8.9320   10.2430   11.5610 C.ar   74  TYR74      -0.0200
      7  CD1        9.1130    9.6350   10.3130 C.ar   74  TYR74      -0.0009
      8  CD2        8.6290    9.4280   12.6540 C.ar   74  TYR74      -0.0009
      9  CE1        8.9850    8.2510   10.1610 C.ar   74  TYR74       0.0417
     10  CE2        8.4910    8.0550   12.5160 C.ar   74  TYR74       0.0417
     11  CZ         8.6650    7.4680   11.2710 C.ar   74  TYR74       0.1957
     12  OH         8.5280    6.1020   11.1600 O.3    74  TYR74      -0.2866
     13  N          6.9920   12.2720   13.9130 N.am   75  HIS75      -0.1975
     14  CA         6.1940   11.7570   15.0270 C.3    75  HIS75       0.1656
     15  C          4.8970   12.5200   15.2280 C.2    75  HIS75       0.2291
     16  O          4.6790   13.1880   16.2380 O.2    75  HIS75      -0.2864
     17  CB         7.0510   11.7020   16.2950 C.3    75  HIS75       0.0771
     18  CG         8.0790   10.6300   16.2380 C.ar   75  HIS75       0.0820
     19  ND1        9.4160   10.8780   16.0150 N.ar   75  HIS75      -0.2267
     20  CD2        7.9530    9.2880   16.3260 C.ar   75  HIS75       0.1154
     21  CE1       10.0720    9.7300   15.9890 C.ar   75  HIS75       0.1986
     22  NE2        9.2020    8.7490   16.1620 N.ar   75  HIS75      -0.2212
     23  N          2.8270    7.2420   20.2640 N.3   116  ASP116     -0.1239
     24  CA         3.7180    8.4010   20.1620 C.3   116  ASP116      0.1674
     25  C          2.9910    9.7110   20.4620 C.2   116  ASP116      0.2266
     26  O          3.4650   10.7810   20.1060 O.2   116  ASP116     -0.2867
     27  CB         4.3080    8.4870   18.7440 C.3   116  ASP116      0.1410
     28  CG         5.5530    7.6590   18.5670 C.2   116  ASP116      0.3668
     29  OD1        6.2910    7.4410   19.5590 O.co2 116  ASP116     -0.2456
     30  OD2        5.8820    7.2120   17.4490 O.co2 116  ASP116     -0.2456
     31  N          4.3400   13.6550   21.1810 N.3   119  HIS119     -0.1241
     32  CA         5.7750   13.5800   20.9050 C.3   119  HIS119      0.1621
     33  C          6.2960   14.9870   20.5660 C.2   119  HIS119      0.2264
     34  O          5.7340   15.6500   19.6970 O.2   119  HIS119     -0.2867
     35  CB         6.0590   12.6470   19.7240 C.3   119  HIS119      0.0745
     36  CG         7.4480   12.0930   19.7170 C.ar  119  HIS119      0.0817
     37  ND1        8.5680   12.8910   19.6620 N.ar  119  HIS119     -0.2268
     38  CD2        7.8980   10.8160   19.7390 C.ar  119  HIS119      0.1154
     39  CE1        9.6500   12.1320   19.6920 C.ar  119  HIS119      0.1986
     40  NE2        9.2720   10.8670   19.7290 N.ar  119  HIS119     -0.2212
     41  N          8.0660    7.1680   26.0990 N.3   145  GLU145     -0.1245
     42  CA         7.0950    6.0870   26.0360 C.3   145  GLU145      0.1567
     43  C          6.1560    6.1060   27.2370 C.2   145  GLU145      0.2260
     44  O          4.9650    5.8670   27.0980 O.2   145  GLU145     -0.2867
     45  CB         7.7990    4.7380   25.8480 C.3   145  GLU145      0.0388
     46  CG         8.5250    4.5970   24.5020 C.3   145  GLU145      0.1160
     47  CD         9.8190    5.3910   24.3830 C.2   145  GLU145      0.3649
     48  OE1       10.4400    5.6950   25.4220 O.co2 145  GLU145     -0.2457
     49  OE2       10.2230    5.7160   23.2350 O.co2 145  GLU145     -0.2457
     50  N          8.2110   -0.1600   22.6500 N.3   186  THR186     -0.1218
     51  CA         8.5800    0.6170   21.4470 C.3   186  THR186      0.1862
     52  C          9.8620    1.4290   21.6210 C.2   186  THR186      0.2287
     53  O         10.4010    1.9430   20.6470 O.2   186  THR186     -0.2866
     54  CB         7.4550    1.5540   20.9560 C.3   186  THR186      0.1770
     55  OG1        7.1070    2.5200   21.9620 O.3   186  THR186     -0.2211
     56  CG2        6.1650    0.7840   20.6500 C.3   186  THR186      0.0375
     57  N         13.4960    2.0650   21.6360 N.3   188  MET188     -0.1245
     58  CA        14.5430    1.3580   20.9020 C.3   188  MET188      0.1570
     59  C         15.6250    0.7400   21.7800 C.2   188  MET188      0.2261
     60  O         16.3230   -0.1660   21.3390 O.2   188  MET188     -0.2867
     61  CB        15.1770    2.2650   19.8400 C.3   188  MET188      0.0387
     62  CG        14.2820    2.5270   18.6520 C.3   188  MET188      0.0595
     63  SD        13.8380    1.0490   17.6720 S.3   188  MET188     -0.1393
     64  CE        15.3930    0.6260   17.0050 C.3   188  MET188      0.0692
     65  N          6.1720   -3.2290   17.3420 N.3   230  HIS230     -0.1241
     66  CA         7.5580   -2.7990   17.0980 C.3   230  HIS230      0.1621
     67  C          7.8650   -2.8830   15.5960 C.2   230  HIS230      0.2264
     68  O          8.4550   -1.9660   15.0220 O.2   230  HIS230     -0.2867
     69  CB         8.5260   -3.6860   17.8980 C.3   230  HIS230      0.0745
     70  CG         9.9670   -3.2830   17.8100 C.ar  230  HIS230      0.0817
     71  ND1       10.3960   -1.9860   17.9860 N.ar  230  HIS230     -0.2268
     72  CD2       11.0820   -4.0210   17.5830 C.ar  230  HIS230      0.1154
     73  CE1       11.7130   -1.9420   17.8720 C.ar  230  HIS230      0.1986
     74  NE2       12.1550   -3.1640   17.6390 N.ar  230  HIS230     -0.2212
     75  N          6.0840   -0.1260   13.8460 N.3   233  ASP233     -0.1225
     76  CA         6.8380    1.1000   14.1270 C.3   233  ASP233      0.1805
     77  C          8.0500    1.1850   13.1810 C.2   233  ASP233      0.2597
     78  O          8.4290    2.2690   12.7340 O.2   233  ASP233     -0.2718
     79  CB         7.3080    1.0600   15.6020 C.3   233  ASP233      0.1424
     80  CG         7.4070    2.4260   16.2670 C.2   233  ASP233      0.3668
     81  OD1        6.9950    3.4750   15.7050 O.co2 233  ASP233     -0.2456
     82  OD2        7.9010    2.5260   17.4260 O.co2 233  ASP233     -0.2456
     83  N          8.6500    0.0340   12.8910 N.am  234  LEU234     -0.1979
     84  CA         9.8240   -0.0750   12.0090 C.3   234  LEU234      0.1596
     85  C          9.4620   -0.5900   10.6120 C.2   234  LEU234      0.2287
     86  O         10.2740   -1.2330    9.9400 O.2   234  LEU234     -0.2864
     87  CB        10.8750   -0.9990   12.6530 C.3   234  LEU234      0.0297
     88  CG        11.5990   -0.4420   13.8630 C.3   234  LEU234      0.0022
     89  CD1       12.3510   -1.5360   14.5960 C.3   234  LEU234      0.0001
     90  CD2       12.5560    0.6630   13.4410 C.3   234  LEU234      0.0001
     91  N          8.4360    1.3720    7.8580 N.3   236  ASN236     -0.1240
     92  CA         8.6190    2.3060    6.7360 C.3   236  ASN236      0.1653
     93  C          9.4040    1.7260    5.5350 C.2   236  ASN236      0.2266
     94  O          8.9360    1.8430    4.4000 O.2   236  ASN236     -0.2867
     95  CB         9.2800    3.6340    7.1460 C.3   236  ASN236      0.1155
     96  CG         8.4920    4.4470    8.1740 C.2   236  ASN236      0.2627
     97  OD1        9.0720    5.3220    8.7940 O.2   236  ASN236     -0.2716
     98  ND2        7.1960    4.1880    8.3420 N.am  236  ASN236     -0.0877
     99  N          7.8930    5.0410    1.4820 N.3   244  TYR244     -0.1241
    100  CA         9.1420    4.9710    2.2460 C.3   244  TYR244      0.1605
    101  C          9.9420    6.2660    2.1120 C.2   244  TYR244      0.2264
    102  O         10.3930    6.8290    3.1070 O.2   244  TYR244     -0.2867
    103  CB         9.9680    3.7690    1.7590 C.3   244  TYR244      0.0534
    104  CG        11.3330    3.5300    2.4000 C.ar  244  TYR244     -0.0201
    105  CD1       11.7060    4.1100    3.6120 C.ar  244  TYR244     -0.0009
    106  CD2       12.2480    2.6880    1.7750 C.ar  244  TYR244     -0.0009
    107  CE1       12.9580    3.8690    4.1600 C.ar  244  TYR244      0.0417
    108  CE2       13.4870    2.4330    2.3170 C.ar  244  TYR244      0.0417
    109  CZ        13.8500    3.0270    3.4990 C.ar  244  TYR244      0.1957
    110  OH        15.0880    2.7480    4.0230 O.3   244  TYR244     -0.2866
    111  N          8.6650    8.9570    4.2480 N.3   247  TRP247     -0.1227
    112  CA         9.0140    8.7280    5.6470 C.3   247  TRP247      0.1737
    113  C         10.4600    9.1120    5.9070 C.2   247  TRP247      0.2596
    114  O         10.7620    9.6790    6.9390 O.2   247  TRP247     -0.2718
    115  CB         8.7780    7.2740    6.0640 C.3   247  TRP247      0.0564
    116  CG         7.3220    6.9120    6.0870 C.ar  247  TRP247      0.0003
    117  CD1        6.7140    5.9260    5.3690 C.ar  247  TRP247      0.0946
    118  CD2        6.2920    7.5330    6.8670 C.ar  247  TRP247      0.0152
    119  NE1        5.3670    5.9030    5.6420 N.ar  247  TRP247     -0.2442
    120  CE2        5.0800    6.8790    6.5590 C.ar  247  TRP247      0.0810
    121  CE3        6.2660    8.5920    7.7820 C.ar  247  TRP247      0.0012
    122  CZ2        3.8580    7.2370    7.1470 C.ar  247  TRP247      0.0191
    123  CZ3        5.0440    8.9460    8.3730 C.ar  247  TRP247      0.0001
    124  CH2        3.8640    8.2710    8.0440 C.ar  247  TRP247      0.0015
    125  N         11.3460    8.8170    4.9640 N.am  248  THR248     -0.1953
    126  CA        12.7530    9.1870    5.0960 C.3   248  THR248      0.1897
    127  C         12.9050   10.7190    5.1480 C.2   248  THR248      0.2313
    128  O         13.6330   11.2550    5.9710 O.2   248  THR248     -0.2863
    129  CB        13.5850    8.5860    3.9400 C.3   248  THR248      0.1794
    130  OG1       13.5290    7.1500    3.9890 O.3   248  THR248     -0.2208
    131  CG2       15.0580    8.8970    4.1140 C.3   248  THR248      0.0378
    132  N         11.6550   11.8090    8.7230 N.3   251  ILE251     -0.1231
    133  CA        12.5060   11.5070    9.8730 C.3   251  ILE251      0.1692
    134  C         13.7510   12.3830    9.8270 C.2   251  ILE251      0.2591
    135  O         14.1920   12.8690   10.8730 O.2   251  ILE251     -0.2718
    136  CB        12.8380    9.9850    9.9860 C.3   251  ILE251      0.0266
    137  CG1       13.3550    9.6350   11.3850 C.3   251  ILE251      0.0019
    138  CG2       13.8730    9.5650    8.9710 C.3   251  ILE251      0.0020
    139  CD1       12.2980    9.6950   12.4790 C.3   251  ILE251      0.0001
    140  N         14.2870   12.6250    8.6290 N.am  252  MET252     -0.1979
    141  CA        15.4800   13.4620    8.4900 C.3   252  MET252      0.1605
    142  C         15.1880   14.9220    8.8670 C.2   252  MET252      0.2287
    143  O         16.0060   15.5540    9.5190 O.2   252  MET252     -0.2864
    144  CB        16.0970   13.3730    7.0840 C.3   252  MET252      0.0413
    145  CG        16.6930   11.9990    6.7170 C.3   252  MET252      0.0598
    146  SD        17.7200   11.1970    8.0030 S.3   252  MET252     -0.1393
    147  CE        18.9380   12.4520    8.2870 C.3   252  MET252      0.0692
    148  N         14.9880   14.9450   12.6850 N.3   255  PHE255     -0.1241
    149  CA        16.3100   14.7720   13.2620 C.3   255  PHE255      0.1605
    150  C         17.1410   16.0370   13.0780 C.2   255  PHE255      0.2264
    151  O         17.7750   16.4990   14.0260 O.2   255  PHE255     -0.2867
    152  CB        17.0200   13.5620   12.6480 C.3   255  PHE255      0.0534
    153  CG        16.6100   12.2240   13.2460 C.ar  255  PHE255     -0.0203
    154  CD1       15.4730   12.0860   14.0230 C.ar  255  PHE255     -0.0042
    155  CD2       17.3910   11.1020   13.0210 C.ar  255  PHE255     -0.0042
    156  CE1       15.1220   10.8480   14.5660 C.ar  255  PHE255     -0.0003
    157  CE2       17.0340    9.8620   13.5540 C.ar  255  PHE255     -0.0003
    158  CZ        15.9110    9.7400   14.3240 C.ar  255  PHE255     -0.0000
    159  N         23.2950   11.4120   12.9110 N.3   272  MET272     -0.1245
    160  CA        22.3160   11.6460   11.8450 C.3   272  MET272      0.1570
    161  C         21.4290   12.8880   12.0460 C.2   272  MET272      0.2261
    162  O         20.4420   13.0520   11.3330 O.2   272  MET272     -0.2867
    163  CB        21.4600   10.3870   11.6130 C.3   272  MET272      0.0387
    164  CG        22.2950    9.1200   11.3780 C.3   272  MET272      0.0595
    165  SD        21.3170    7.6140   11.3630 S.3   272  MET272     -0.1393
    166  CE        20.8520    7.4610   13.1060 C.3   272  MET272      0.0692
    167  N         22.6990    6.1070    5.4810 N.3   283  SER283     -0.1202
    168  CA        22.0420    5.8900    6.7760 C.3   283  SER283      0.2020
    169  C         20.8370    4.9640    6.6580 C.2   283  SER283      0.2618
    170  O         20.6060    4.1480    7.5560 O.2   283  SER283     -0.2717
    171  CB        21.6380    7.2140    7.4290 C.3   283  SER283      0.2103
    172  OG        22.7950    7.9710    7.7880 O.3   283  SER283     -0.2182
    173  N         20.0730    5.0900    5.5710 N.am  284  GLN284     -0.1979
    174  CA        18.9140    4.2150    5.3520 C.3   284  GLN284      0.1601
    175  C         19.3580    2.7700    5.1020 C.2   284  GLN284      0.2287
    176  O         18.7500    1.8380    5.6060 O.2   284  GLN284     -0.2864
    177  CB        18.0380    4.7040    4.1910 C.3   284  GLN284      0.0394
    178  CG        17.0720    5.8410    4.5280 C.3   284  GLN284      0.0908
    179  CD        16.2370    5.5700    5.7470 C.2   284  GLN284      0.2608
    180  OE1       15.5990    4.5150    5.8470 O.2   284  GLN284     -0.2717
    181  NE2       16.2530    6.5030    6.7010 N.am  284  GLN284     -0.0878
    182  N         20.3790    1.4260    8.4160 N.3   287  PHE287     -0.1241
    183  CA        19.1780    1.2330    9.2220 C.3   287  PHE287      0.1605
    184  C         18.5490   -0.1160    8.8530 C.2   287  PHE287      0.2264
    185  O         18.1670   -0.8950    9.7200 O.2   287  PHE287     -0.2867
    186  CB        18.2320    2.4090    8.9320 C.3   287  PHE287      0.0534
    187  CG        16.8920    2.3600    9.6320 C.ar  287  PHE287     -0.0203
    188  CD1       16.7900    2.0880   10.9850 C.ar  287  PHE287     -0.0042
    189  CD2       15.7300    2.6540    8.9190 C.ar  287  PHE287     -0.0042
    190  CE1       15.5490    2.0780   11.6180 C.ar  287  PHE287     -0.0003
    191  CE2       14.4800    2.6440    9.5470 C.ar  287  PHE287     -0.0003
    192  CZ        14.3950    2.3630   10.8970 C.ar  287  PHE287     -0.0000
@<TRIPOS>BOND
     1    99   100    1
     2   103   100    1
     3   103   104    1
     4   106   108   ar
     5   106   104   ar
     6   101   100    1
     7   101   102    2
     8   108   109   ar
     9   104   105   ar
    10   109   110    1
    11   109   107   ar
    12   105   107   ar
    13   129   130    1
    14   129   131    1
    15   129   126    1
    16   177   178    1
    17   177   174    1
    18   111   112    1
    19    94    93    2
    20   178   179    1
    21   125   126    1
    22   125   113   am
    23   126   127    1
    24   175   174    1
    25   175   176    2
    26   127   128    2
    27   174   173    1
    28   117   119   ar
    29   117   116   ar
    30   167   168    1
    31    93    92    1
    32   173   169   am
    33   119   120   ar
    34   112   113    1
    35   112   115    1
    36   179   180    2
    37   179   181   am
    38   113   114    2
    39   115   116    1
    40   116   118   ar
    41   120   118   ar
    42   120   122   ar
    43   169   168    1
    44   169   170    2
    45   145   144    1
    46   145   146    1
    47    92    95    1
    48    92    91    1
    49   168   171    1
    50   118   121   ar
    51   144   141    1
    52    95    96    1
    53   122   124   ar
    54   171   172    1
    55   121   123   ar
    56   146   147    1
    57   124   123   ar
    58    96    98   am
    59    96    97    2
    60   182   183    1
    61   141   140    1
    62   141   142    1
    63   140   134   am
    64   132   133    1
    65   184   183    1
    66   184   185    2
    67   142   143    2
    68   189   191   ar
    69   189   187   ar
    70   186   183    1
    71   186   187    1
    72   138   136    1
    73   191   192   ar
    74   187   188   ar
    75   134   133    1
    76   134   135    2
    77   133   136    1
    78    86    85    2
    79   136   137    1
    80     9     7   ar
    81     9    11   ar
    82     7     6   ar
    83    85    84    1
    84   192   190   ar
    85   188   190   ar
    86    12    11    1
    87    11    10   ar
    88   162   161    2
    89   165   164    1
    90   165   166    1
    91   164   163    1
    92   137   139    1
    93     6     5    1
    94     6     8   ar
    95     2     1    1
    96     2     5    1
    97     2     3    1
    98   163   160    1
    99   160   161    1
   100   160   159    1
   101    84    87    1
   102    84    83    1
   103     4     3    2
   104    10     8   ar
   105     3    13   am
   106   152   153    1
   107   152   149    1
   108    87    88    1
   109   148   149    1
   110    78    77    2
   111    83    77   am
   112   155   153   ar
   113   155   157   ar
   114   150   149    1
   115   150   151    2
   116    77    76    1
   117   153   154   ar
   118    90    88    1
   119   157   158   ar
   120    75    76    1
   121    88    89    1
   122    13    14    1
   123   154   156   ar
   124    76    79    1
   125   158   156   ar
   126    68    67    2
   127    14    15    1
   128    14    17    1
   129    15    16    2
   130    67    66    1
   131    79    80    1
   132    81    80   ar
   133    21    19   ar
   134    21    22   ar
   135    19    18   ar
   136    22    20   ar
   137    18    17    1
   138    18    20   ar
   139    80    82   ar
   140    64    63    1
   141    66    65    1
   142    66    69    1
   143    30    28   ar
   144    72    74   ar
   145    72    70   ar
   146    74    73   ar
   147    63    62    1
   148    70    69    1
   149    70    71   ar
   150    73    71   ar
   151    28    27    1
   152    28    29   ar
   153    62    61    1
   154    27    24    1
   155    37    39   ar
   156    37    36   ar
   157    39    40   ar
   158    34    33    2
   159    36    35    1
   160    36    38   ar
   161    35    32    1
   162    40    38   ar
   163    61    58    1
   164    26    25    2
   165    24    23    1
   166    24    25    1
   167    33    32    1
   168    53    52    2
   169    56    54    1
   170    58    57    1
   171    58    59    1
   172    32    31    1
   173    54    51    1
   174    54    55    1
   175    60    59    2
   176    51    52    1
   177    51    50    1
   178    49    47   ar
   179    47    46    1
   180    47    48   ar
   181    46    45    1
   182    45    42    1
   183    42    41    1
   184    42    43    1
   185    44    43    2
