@<TRIPOS>MOLECULE
tmp/1xoqB00.pdb
 201 196 0 0 0
SMALL
GASTEIGER

@<TRIPOS>ATOM
      1  N         13.0160   18.3610  100.2970 N.3    74  TYR74      -0.1227
      2  CA        13.7550   19.6130  100.1110 C.3    74  TYR74       0.1736
      3  C         13.1180   20.5860   99.0970 C.2    74  TYR74       0.2595
      4  O         12.8390   21.7520   99.4460 O.2    74  TYR74      -0.2718
      5  CB        15.2120   19.3300   99.6950 C.3    74  TYR74       0.0548
      6  CG        16.0570   20.5870   99.6020 C.ar   74  TYR74      -0.0200
      7  CD1       16.8110   21.0310  100.6860 C.ar   74  TYR74      -0.0009
      8  CD2       16.0650   21.3610   98.4310 C.ar   74  TYR74      -0.0009
      9  CE1       17.5630   22.2010  100.5970 C.ar   74  TYR74       0.0417
     10  CE2       16.8070   22.5210   98.3430 C.ar   74  TYR74       0.0417
     11  CZ        17.5670   22.9390   99.4290 C.ar   74  TYR74       0.1957
     12  OH        18.3070   24.1240   99.3360 O.3    74  TYR74      -0.2866
     13  N         12.9310   20.1250   97.8560 N.am   75  HIS75      -0.1975
     14  CA        12.4230   20.9730   96.7630 C.3    75  HIS75       0.1656
     15  C         10.9220   21.1590   96.8190 C.2    75  HIS75       0.2291
     16  O         10.1760   20.7400   95.9290 O.2    75  HIS75      -0.2864
     17  CB        12.8680   20.4370   95.3960 C.3    75  HIS75       0.0771
     18  CG        14.3410   20.5300   95.1840 C.ar   75  HIS75       0.0820
     19  ND1       15.2030   19.4910   95.4720 N.ar   75  HIS75      -0.2267
     20  CD2       15.1140   21.5540   94.7550 C.ar   75  HIS75       0.1154
     21  CE1       16.4440   19.8750   95.2320 C.ar   75  HIS75       0.1986
     22  NE2       16.4180   21.1180   94.7810 N.ar   75  HIS75      -0.2212
     23  N         11.4220   25.6940  100.4820 N.3    79  HIS79      -0.1241
     24  CA        12.6350   26.0340   99.7350 C.3    79  HIS79       0.1621
     25  C         12.3750   27.2290   98.8140 C.2    79  HIS79       0.2264
     26  O         13.2070   28.1180   98.7110 O.2    79  HIS79      -0.2867
     27  CB        13.1520   24.8470   98.9080 C.3    79  HIS79       0.0745
     28  CG        14.2620   25.2060   97.9600 C.ar   79  HIS79       0.0817
     29  ND1       15.4540   25.7620   98.3770 N.ar   79  HIS79      -0.2268
     30  CD2       14.3650   25.0620   96.6180 C.ar   79  HIS79       0.1154
     31  CE1       16.2370   25.9540   97.3320 C.ar   79  HIS79       0.1986
     32  NE2       15.6010   25.5330   96.2510 N.ar   79  HIS79      -0.2212
     33  N          8.7450   20.2320   91.1960 N.3   119  HIS119     -0.1241
     34  CA         9.9530   19.4090   91.3020 C.3   119  HIS119      0.1621
     35  C          9.5610   18.0290   91.8340 C.2   119  HIS119      0.2264
     36  O          8.8810   17.9430   92.8460 O.2   119  HIS119     -0.2867
     37  CB        10.9550   20.0700   92.2410 C.3   119  HIS119      0.0745
     38  CG        12.3700   19.6290   92.0400 C.ar  119  HIS119      0.0817
     39  ND1       12.8070   18.3640   92.3630 N.ar  119  HIS119     -0.2268
     40  CD2       13.4500   20.2890   91.5590 C.ar  119  HIS119      0.1154
     41  CE1       14.0940   18.2630   92.0890 C.ar  119  HIS119      0.1986
     42  NE2       14.5090   19.4130   91.5930 N.ar  119  HIS119     -0.2212
     43  N         14.6490   22.6310   84.9530 N.3   145  GLU145     -0.1245
     44  CA        14.6120   24.0980   84.9380 C.3   145  GLU145      0.1567
     45  C         13.6890   24.6190   83.8250 C.2   145  GLU145      0.2260
     46  O         12.9790   25.6040   84.0130 O.2   145  GLU145     -0.2867
     47  CB        16.0260   24.6780   84.8680 C.3   145  GLU145      0.0388
     48  CG        16.8670   24.4100   86.1190 C.3   145  GLU145      0.1160
     49  CD        17.4640   23.0040   86.1750 C.2   145  GLU145      0.3649
     50  OE1       17.4610   22.2920   85.1440 O.co2 145  GLU145     -0.2457
     51  OE2       17.9380   22.5980   87.2640 O.co2 145  GLU145     -0.2457
     52  N         19.8790   28.4390   87.1130 N.3   186  THR186     -0.1218
     53  CA        19.9040   27.6910   88.3800 C.3   186  THR186      0.1862
     54  C         20.3840   26.2440   88.1990 C.2   186  THR186      0.2287
     55  O         20.7250   25.5810   89.1730 O.2   186  THR186     -0.2866
     56  CB        18.5550   27.7020   89.1420 C.3   186  THR186      0.1770
     57  OG1       17.5100   27.1030   88.3610 O.3   186  THR186     -0.2211
     58  CG2       18.1010   29.1160   89.4530 C.3   186  THR186      0.0375
     59  N         22.7760   23.4570   87.9500 N.3   188  MET188     -0.1245
     60  CA        24.1530   23.3690   88.4670 C.3   188  MET188      0.1570
     61  C         25.1930   23.1160   87.3990 C.2   188  MET188      0.2261
     62  O         26.3740   23.4150   87.6010 O.2   188  MET188     -0.2867
     63  CB        24.2760   22.2910   89.5550 C.3   188  MET188      0.0387
     64  CG        23.6070   22.6630   90.8530 C.3   188  MET188      0.0595
     65  SD        24.3570   24.1370   91.6340 S.3   188  MET188     -0.1393
     66  CE        25.9830   23.5580   92.0110 C.3   188  MET188      0.0692
     67  N         21.1830   32.3720   92.0990 N.3   226  HIS226     -0.1241
     68  CA        22.0190   31.1670   92.2480 C.3   226  HIS226      0.1621
     69  C         22.6240   31.1160   93.6740 C.2   226  HIS226      0.2264
     70  O         22.6590   30.0490   94.3100 O.2   226  HIS226     -0.2867
     71  CB        23.0830   31.1500   91.1280 C.3   226  HIS226      0.0745
     72  CG        23.9900   29.9560   91.1210 C.ar  226  HIS226      0.0817
     73  ND1       23.5400   28.6600   91.2650 N.ar  226  HIS226     -0.2268
     74  CD2       25.3270   29.8640   90.9150 C.ar  226  HIS226      0.1154
     75  CE1       24.5660   27.8260   91.1880 C.ar  226  HIS226      0.1986
     76  NE2       25.6640   28.5330   90.9850 N.ar  226  HIS226     -0.2212
     77  N         19.8440   30.2010   95.9990 N.3   229  ASP229     -0.1225
     78  CA        19.6160   28.7540   95.8650 C.3   229  ASP229      0.1805
     79  C         20.6690   27.9450   96.6520 C.2   229  ASP229      0.2597
     80  O         20.3750   26.8690   97.1860 O.2   229  ASP229     -0.2718
     81  CB        19.6930   28.4020   94.3810 C.3   229  ASP229      0.1424
     82  CG        18.7890   27.2450   93.9580 C.2   229  ASP229      0.3668
     83  OD1       17.9420   26.7420   94.7260 O.co2 229  ASP229     -0.2456
     84  OD2       18.8810   26.7880   92.8010 O.co2 229  ASP229     -0.2456
     85  N         21.8970   28.4720   96.6910 N.am  230  LEU230     -0.1979
     86  CA        23.0220   27.8680   97.4010 C.3   230  LEU230      0.1596
     87  C         23.2780   28.6020   98.7210 C.2   230  LEU230      0.2287
     88  O         24.4130   28.6450   99.1980 O.2   230  LEU230     -0.2864
     89  CB        24.2860   27.9120   96.5270 C.3   230  LEU230      0.0297
     90  CG        24.2960   26.9600   95.3150 C.3   230  LEU230      0.0022
     91  CD1       25.4220   27.3320   94.3410 C.3   230  LEU230      0.0001
     92  CD2       24.4720   25.5410   95.7630 C.3   230  LEU230      0.0001
     93  N         21.8490   27.9090  101.8370 N.3   232  ASN232     -0.1226
     94  CA        21.6350   27.1570  103.0910 C.3   232  ASN232      0.1770
     95  C         22.8420   27.1560  104.0420 C.2   232  ASN232      0.2439
     96  O         22.6700   27.4320  105.2230 O.2   232  ASN232     -0.2733
     97  CB        21.2130   25.6970  102.8690 C.3   232  ASN232      0.1168
     98  CG        19.9680   25.5410  102.0310 C.2   232  ASN232      0.2627
     99  OD1       19.7980   24.4950  101.4150 O.2   232  ASN232     -0.2716
    100  ND2       19.0890   26.5530  101.9990 N.am  232  ASN232     -0.0877
    101  N         24.0540   26.8550  103.5630 N.am  233  PRO233     -0.2729
    102  CA        25.2180   26.8150  104.4580 C.3   233  PRO233      0.1401
    103  C         25.6590   28.1760  105.0200 C.2   233  PRO233      0.2269
    104  O         26.5460   28.1930  105.8760 O.2   233  PRO233     -0.2865
    105  CB        26.3100   26.1950  103.5720 C.3   233  PRO233      0.0296
    106  CG        25.5660   25.5160  102.4800 C.3   233  PRO233      0.0237
    107  CD        24.4400   26.4710  102.1910 C.3   233  PRO233      0.0939
    108  N         20.4950   25.8360  108.7490 N.3   240  TYR240     -0.1241
    109  CA        21.3600   25.0550  107.8690 C.3   240  TYR240      0.1605
    110  C         21.1970   23.5630  108.1270 C.2   240  TYR240      0.2264
    111  O         20.9940   22.7930  107.1950 O.2   240  TYR240     -0.2867
    112  CB        22.8170   25.5000  108.0510 C.3   240  TYR240      0.0534
    113  CG        23.8680   24.7740  107.2370 C.ar  240  TYR240     -0.0201
    114  CD1       23.5580   24.0800  106.0660 C.ar  240  TYR240     -0.0009
    115  CD2       25.2020   24.8220  107.6290 C.ar  240  TYR240     -0.0009
    116  CE1       24.5600   23.4280  105.3360 C.ar  240  TYR240      0.0417
    117  CE2       26.1920   24.1800  106.9120 C.ar  240  TYR240      0.0417
    118  CZ        25.8740   23.4780  105.7740 C.ar  240  TYR240      0.1957
    119  OH        26.8850   22.8300  105.0780 O.3   240  TYR240     -0.2866
    120  N         18.0510   22.2030  106.6450 N.3   243  TRP243     -0.1227
    121  CA        18.1470   22.0900  105.1910 C.3   243  TRP243      0.1737
    122  C         18.9580   20.8510  104.7950 C.2   243  TRP243      0.2596
    123  O         18.6380   20.1710  103.8180 O.2   243  TRP243     -0.2718
    124  CB        18.7900   23.3190  104.5710 C.3   243  TRP243      0.0564
    125  CG        17.9140   24.5080  104.5910 C.ar  243  TRP243      0.0003
    126  CD1       18.1860   25.6980  105.1720 C.ar  243  TRP243      0.0946
    127  CD2       16.5960   24.6270  104.0310 C.ar  243  TRP243      0.0152
    128  NE1       17.1320   26.5670  105.0140 N.ar  243  TRP243     -0.2442
    129  CE2       16.1400   25.9430  104.3090 C.ar  243  TRP243      0.0810
    130  CE3       15.7610   23.7720  103.3150 C.ar  243  TRP243      0.0012
    131  CZ2       14.8880   26.4110  103.9080 C.ar  243  TRP243      0.0191
    132  CZ3       14.5100   24.2440  102.9030 C.ar  243  TRP243      0.0001
    133  CH2       14.0900   25.5570  103.2080 C.ar  243  TRP243      0.0015
    134  N         20.0220   20.5790  105.5370 N.am  244  THR244     -0.1953
    135  CA        20.8730   19.4260  105.2630 C.3   244  THR244      0.1897
    136  C         20.0910   18.1330  105.4890 C.2   244  THR244      0.2313
    137  O         20.1790   17.2130  104.6950 O.2   244  THR244     -0.2863
    138  CB        22.1170   19.4560  106.1490 C.3   244  THR244      0.1794
    139  OG1       22.9060   20.6100  105.8260 O.3   244  THR244     -0.2208
    140  CG2       23.0440   18.2490  105.8560 C.3   244  THR244      0.0378
    141  N         17.7660   17.8050  102.3610 N.3   247  ILE247     -0.1231
    142  CA        18.3970   17.4340  101.1020 C.3   247  ILE247      0.1692
    143  C         18.8640   15.9850  101.1550 C.2   247  ILE247      0.2591
    144  O         18.8090   15.2970  100.1540 O.2   247  ILE247     -0.2718
    145  CB        19.5680   18.3800  100.7010 C.3   247  ILE247      0.0266
    146  CG1       19.8870   18.2220   99.2090 C.3   247  ILE247      0.0019
    147  CG2       20.8200   18.1050  101.5020 C.3   247  ILE247      0.0020
    148  CD1       18.8170   18.7210   98.2970 C.3   247  ILE247      0.0001
    149  N         19.3400   15.5340  102.3120 N.am  248  MET248     -0.1979
    150  CA        19.8190   14.1570  102.4460 C.3   248  MET248      0.1605
    151  C         18.6550   13.1760  102.2970 C.2   248  MET248      0.2287
    152  O         18.7920   12.1650  101.6040 O.2   248  MET248     -0.2864
    153  CB        20.5820   13.9550  103.7640 C.3   248  MET248      0.0413
    154  CG        21.9420   14.6710  103.8060 C.3   248  MET248      0.0598
    155  SD        22.9470   14.5260  102.3040 S.3   248  MET248     -0.1393
    156  CE        23.0860   12.7830  102.1300 C.3   248  MET248      0.0692
    157  N         17.8000   13.0620   98.6150 N.3   251  PHE251     -0.1241
    158  CA        18.8410   12.2930   97.9200 C.3   251  PHE251      0.1605
    159  C         18.7200   10.7920   98.2180 C.2   251  PHE251      0.2264
    160  O         18.8210    9.9660   97.3070 O.2   251  PHE251     -0.2867
    161  CB        20.2470   12.7760   98.3110 C.3   251  PHE251      0.0534
    162  CG        20.6830   14.0870   97.6690 C.ar  251  PHE251     -0.0203
    163  CD1       19.8500   14.8160   96.8210 C.ar  251  PHE251     -0.0042
    164  CD2       21.9490   14.5970   97.9450 C.ar  251  PHE251     -0.0042
    165  CE1       20.2860   16.0180   96.2470 C.ar  251  PHE251     -0.0003
    166  CE2       22.3870   15.7960   97.3780 C.ar  251  PHE251     -0.0003
    167  CZ        21.5640   16.5000   96.5270 C.ar  251  PHE251     -0.0000
    168  N         26.2080   10.5520   97.0320 N.3   268  MET268     -0.1245
    169  CA        25.4770   11.0670   98.1920 C.3   268  MET268      0.1570
    170  C         24.0070   10.6300   98.2900 C.2   268  MET268      0.2261
    171  O         23.2540   11.1610   99.1140 O.2   268  MET268     -0.2867
    172  CB        25.6070   12.6030   98.2740 C.3   268  MET268      0.0387
    173  CG        26.9760   13.0750   98.7940 C.3   268  MET268      0.0595
    174  SD        28.2260   13.5430   97.5570 S.3   268  MET268     -0.1393
    175  CE        27.2390   14.3170   96.1850 C.3   268  MET268      0.0692
    176  N         30.5140   15.3880  103.3350 N.3   279  SER279     -0.1202
    177  CA        29.8930   15.8830  102.1160 C.3   279  SER279      0.2020
    178  C         29.4970   17.3570  102.1870 C.2   279  SER279      0.2618
    179  O         29.6070   18.0680  101.1970 O.2   279  SER279     -0.2717
    180  CB        28.7050   15.0170  101.7450 C.3   279  SER279      0.2103
    181  OG        29.1660   13.7050  101.4620 O.3   279  SER279     -0.2182
    182  N         29.0450   17.8200  103.3480 N.am  280  GLN280     -0.1979
    183  CA        28.7320   19.2300  103.5010 C.3   280  GLN280      0.1601
    184  C         30.0120   20.0530  103.4150 C.2   280  GLN280      0.2287
    185  O         30.0170   21.1040  102.7850 O.2   280  GLN280     -0.2864
    186  CB        28.0150   19.5020  104.8200 C.3   280  GLN280      0.0394
    187  CG        26.5350   19.1670  104.7750 C.3   280  GLN280      0.0908
    188  CD        25.8340   19.8060  103.6020 C.2   280  GLN280      0.2608
    189  OE1       25.8350   21.0250  103.4690 O.2   280  GLN280     -0.2717
    190  NE2       25.2160   18.9810  102.7480 N.am  280  GLN280     -0.0878
    191  N         30.9890   20.2620   99.8620 N.3   283  PHE283     -0.1241
    192  CA        30.0070   21.1100   99.1690 C.3   283  PHE283      0.1605
    193  C         30.3570   22.5880   99.3910 C.2   283  PHE283      0.2264
    194  O         30.3690   23.3760   98.4490 O.2   283  PHE283     -0.2867
    195  CB        28.6080   20.7740   99.7040 C.3   283  PHE283      0.0534
    196  CG        27.4980   21.6510   99.1920 C.ar  283  PHE283     -0.0203
    197  CD1       27.3330   21.8860   97.8290 C.ar  283  PHE283     -0.0042
    198  CD2       26.5660   22.1720  100.0740 C.ar  283  PHE283     -0.0042
    199  CE1       26.2730   22.6670   97.3570 C.ar  283  PHE283     -0.0003
    200  CE2       25.5020   22.9530   99.6150 C.ar  283  PHE283     -0.0003
    201  CZ        25.3640   23.2020   98.2430 C.ar  283  PHE283     -0.0000
@<TRIPOS>BOND
     1    45    46    2
     2    45    44    1
     3    47    44    1
     4    47    48    1
     5    44    43    1
     6    50    49   ar
     7    48    49    1
     8    49    51   ar
     9    52    53    1
    10    61    62    2
    11    61    60    1
    12    59    60    1
    13    54    53    1
    14    54    55    2
    15    57    56    1
    16    53    56    1
    17    60    63    1
    18    56    58    1
    19    63    64    1
    20    64    65    1
    21    74    76   ar
    22    74    72   ar
    23    76    75   ar
    24    72    71    1
    25    72    73   ar
    26    71    68    1
    27    75    73   ar
    28    33    34    1
    29    34    35    1
    30    34    37    1
    31    40    42   ar
    32    40    38   ar
    33    42    41   ar
    34    65    66    1
    35    35    36    2
    36    38    37    1
    37    38    39   ar
    38    41    39   ar
    39    67    68    1
    40    68    69    1
    41    84    82   ar
    42    69    70    2
    43    82    81    1
    44    82    83   ar
    45    91    90    1
    46    81    78    1
    47    20    22   ar
    48    20    18   ar
    49    22    21   ar
    50    18    17    1
    51    18    19   ar
    52    21    19   ar
    53    90    92    1
    54    90    89    1
    55    17    14    1
    56    78    77    1
    57    78    79    1
    58    16    15    2
    59   175   174    1
    60   165   167   ar
    61   165   163   ar
    62    32    30   ar
    63    32    31   ar
    64    89    86    1
    65   167   166   ar
    66    30    28   ar
    67    79    85   am
    68    79    80    2
    69    85    86    1
    70    14    15    1
    71    14    13    1
    72   163   162   ar
    73   168   169    1
    74   160   159    2
    75    31    29   ar
    76   199   197   ar
    77   199   201   ar
    78   166   164   ar
    79    86    87    1
    80   174   173    1
    81   162   164   ar
    82   162   161    1
    83   197   196   ar
    84    13     3   am
    85   158   159    1
    86   158   161    1
    87   158   157    1
    88    28    29   ar
    89    28    27    1
    90   169   172    1
    91   169   170    1
    92   201   200   ar
    93   172   173    1
    94   170   171    2
    95   148   146    1
    96    10     8   ar
    97    10    11   ar
    98     8     6   ar
    99   194   193    2
   100    26    25    2
   101    87    88    2
   102    25    24    1
   103    27    24    1
   104     3     4    2
   105     3     2    1
   106   192   193    1
   107   192   195    1
   108   192   191    1
   109   196   195    1
   110   196   198   ar
   111   146   145    1
   112    12    11    1
   113    11     9   ar
   114     6     5    1
   115     6     7   ar
   116   200   198   ar
   117     5     2    1
   118    24    23    1
   119     2     1    1
   120   144   143    2
   121     9     7   ar
   122   145   142    1
   123   145   147    1
   124   142   143    1
   125   142   141    1
   126   143   149   am
   127   179   178    2
   128    99    98    2
   129   181   180    1
   130   152   151    2
   131   180   177    1
   132    93    94    1
   133   100    98   am
   134    98    97    1
   135   177   178    1
   136   177   176    1
   137   156   155    1
   138   178   182   am
   139   107   106    1
   140   107   101    1
   141   151   150    1
   142   155   154    1
   143   149   150    1
   144   150   153    1
   145   106   105    1
   146   190   188   am
   147   185   184    2
   148    97    94    1
   149   132   133   ar
   150   132   130   ar
   151    94    95    1
   152   133   131   ar
   153   130   127   ar
   154   182   183    1
   155   184   183    1
   156   189   188    2
   157   183   186    1
   158   101    95   am
   159   101   102    1
   160   105   102    1
   161   188   187    1
   162   153   154    1
   163   123   122    2
   164   131   129   ar
   165   127   129   ar
   166   127   125   ar
   167    95    96    2
   168   129   128   ar
   169   102   103    1
   170   124   125    1
   171   124   121    1
   172   125   126   ar
   173   137   136    2
   174   187   186    1
   175   122   121    1
   176   122   134   am
   177   128   126   ar
   178   103   104    2
   179   119   118    1
   180   121   120    1
   181   135   136    1
   182   135   134    1
   183   135   138    1
   184   116   118   ar
   185   116   114   ar
   186   118   117   ar
   187   139   138    1
   188   140   138    1
   189   114   113   ar
   190   117   115   ar
   191   111   110    2
   192   113   115   ar
   193   113   112    1
   194   109   112    1
   195   109   110    1
   196   109   108    1
