@<TRIPOS>MOLECULE
tmp/1xosA00.pdb
 204 197 0 0 0
SMALL
GASTEIGER

@<TRIPOS>ATOM
      1  N         11.0430   63.5340   44.5360 N.3    71  TYR71      -0.1227
      2  CA         9.8670   62.6980   44.7090 C.3    71  TYR71       0.1736
      3  C         10.0260   61.3080   44.0510 C.2    71  TYR71       0.2595
      4  O          9.8810   60.2930   44.7120 O.2    71  TYR71      -0.2718
      5  CB         8.6250   63.4250   44.1930 C.3    71  TYR71       0.0548
      6  CG         7.3530   62.6440   44.4390 C.ar   71  TYR71      -0.0200
      7  CD1        6.6430   62.7760   45.6260 C.ar   71  TYR71      -0.0009
      8  CD2        6.8630   61.7650   43.4800 C.ar   71  TYR71      -0.0009
      9  CE1        5.4840   62.0900   45.8390 C.ar   71  TYR71       0.0417
     10  CE2        5.6930   61.0240   43.7000 C.ar   71  TYR71       0.0417
     11  CZ         5.0130   61.1760   44.8800 C.ar   71  TYR71       0.1957
     12  OH         3.8520   60.4460   45.0620 O.3    71  TYR71      -0.2866
     13  N         10.3390   61.2770   42.7600 N.am   72  HIS72      -0.1975
     14  CA        10.3090   60.0490   41.9750 C.3    72  HIS72       0.1656
     15  C         11.6410   59.2830   42.1110 C.2    72  HIS72       0.2291
     16  O         12.3230   59.0070   41.1150 O.2    72  HIS72      -0.2864
     17  CB        10.0170   60.3910   40.5070 C.3    72  HIS72       0.0771
     18  CG         8.6030   60.8140   40.2690 C.ar   72  HIS72       0.0820
     19  ND1        8.2310   62.1360   40.1050 N.ar   72  HIS72      -0.2267
     20  CD2        7.4660   60.0860   40.1720 C.ar   72  HIS72       0.1154
     21  CE1        6.9220   62.1950   39.9230 C.ar   72  HIS72       0.1986
     22  NE2        6.4430   60.9650   39.9390 N.ar   72  HIS72      -0.2212
     23  N          9.5080   56.3640   46.6540 N.3    76  HIS76      -0.1241
     24  CA         8.1520   56.3730   46.0860 C.3    76  HIS76       0.1621
     25  C          7.8370   55.0090   45.5110 C.2    76  HIS76       0.2264
     26  O          6.7330   54.5350   45.7070 O.2    76  HIS76      -0.2867
     27  CB         8.0220   57.4350   44.9870 C.3    76  HIS76       0.0745
     28  CG         6.7390   57.3830   44.1980 C.ar   76  HIS76       0.0817
     29  ND1        5.5400   57.8880   44.6710 N.ar   76  HIS76      -0.2268
     30  CD2        6.5030   56.9960   42.9220 C.ar   76  HIS76       0.1154
     31  CE1        4.6050   57.7230   43.7520 C.ar   76  HIS76       0.1986
     32  NE2        5.1640   57.1930   42.6750 N.ar   76  HIS76      -0.2212
     33  N          7.9760   53.7560   38.0350 N.3   113  ASP113     -0.1239
     34  CA         8.6100   55.0640   37.7710 C.3   113  ASP113      0.1674
     35  C         10.1200   55.0150   37.6280 C.2   113  ASP113      0.2266
     36  O         10.8160   56.0470   37.8350 O.2   113  ASP113     -0.2867
     37  CB         8.3290   56.0340   38.8860 C.3   113  ASP113      0.1410
     38  CG         7.0170   56.7820   38.7330 C.2   113  ASP113      0.3668
     39  OD1        6.5270   57.0580   37.5980 O.co2 113  ASP113     -0.2456
     40  OD2        6.4230   57.1600   39.7610 O.co2 113  ASP113     -0.2456
     41  N         13.0310   57.7870   36.2500 N.3   116  HIS116     -0.1241
     42  CA        12.3060   59.0400   36.0890 C.3   116  HIS116      0.1621
     43  C         13.2820   60.2330   36.2610 C.2   116  HIS116      0.2264
     44  O         13.9520   60.2890   37.2610 O.2   116  HIS116     -0.2867
     45  CB        11.2390   59.0910   37.1590 C.3   116  HIS116      0.0745
     46  CG        10.1400   60.0560   36.8880 C.ar  116  HIS116      0.0817
     47  ND1       10.3210   61.4210   36.9250 N.ar  116  HIS116     -0.2268
     48  CD2        8.8220   59.8480   36.6330 C.ar  116  HIS116      0.1154
     49  CE1        9.1670   62.0180   36.6580 C.ar  116  HIS116      0.1986
     50  NE2        8.2420   61.0850   36.4760 N.ar  116  HIS116     -0.2212
     51  N         -0.6010   54.3150   34.8770 N.3   182  THR182     -0.1218
     52  CA        -0.2060   55.3840   35.8070 C.3   182  THR182      0.1862
     53  C          0.0190   56.6930   35.1300 C.2   182  THR182      0.2287
     54  O          0.3230   57.6630   35.7920 O.2   182  THR182     -0.2866
     55  CB         1.0580   55.0450   36.6030 C.3   182  THR182      0.1770
     56  OG1        2.1640   54.8160   35.7210 O.3   182  THR182     -0.2211
     57  CG2        0.8830   53.7340   37.3570 C.3   182  THR182      0.0375
     58  N         -0.9280   59.9940   34.0140 N.3   184  MET184     -0.1245
     59  CA        -2.0170   60.7700   34.5740 C.3   184  MET184      0.1570
     60  C         -2.9830   61.3410   33.5840 C.2   184  MET184      0.2261
     61  O         -4.0870   61.7140   33.9600 O.2   184  MET184     -0.2867
     62  CB        -1.4880   61.8660   35.4860 C.3   184  MET184      0.0387
     63  CG        -1.6110   61.4350   36.9780 C.3   184  MET184      0.0595
     64  SD        -3.3350   61.4800   37.5580 S.3   184  MET184     -0.1393
     65  CE        -3.5740   63.1580   37.4010 C.3   184  MET184      0.0692
     66  N         -0.4240   54.6980   43.4840 N.3   227  ASP227     -0.1225
     67  CA         0.3530   55.8400   43.0280 C.3   227  ASP227      0.1805
     68  C         -0.0970   57.1830   43.6160 C.2   227  ASP227      0.2597
     69  O          0.7120   57.9930   44.0280 O.2   227  ASP227     -0.2718
     70  CB         0.3270   55.9110   41.4880 C.3   227  ASP227      0.1424
     71  CG         1.4760   56.7460   40.9240 C.2   227  ASP227      0.3668
     72  OD1        1.4340   57.2060   39.7620 O.co2 227  ASP227     -0.2456
     73  OD2        2.4730   56.9820   41.5930 O.co2 227  ASP227     -0.2456
     74  N         -1.4030   57.4090   43.6220 N.am  228  LEU228     -0.1979
     75  CA        -2.0180   58.6250   44.1100 C.3   228  LEU228      0.1596
     76  C         -2.5970   58.4280   45.5240 C.2   228  LEU228      0.2287
     77  O         -3.6930   58.8840   45.8270 O.2   228  LEU228     -0.2864
     78  CB        -3.1390   59.0090   43.1620 C.3   228  LEU228      0.0297
     79  CG        -2.8460   59.5200   41.7410 C.3   228  LEU228      0.0022
     80  CD1       -3.9140   60.5070   41.3630 C.3   228  LEU228      0.0001
     81  CD2       -1.5260   60.1810   41.5800 C.3   228  LEU228      0.0001
     82  N         -0.6380   59.1320   48.4880 N.3   230  ASN230     -0.1226
     83  CA         0.0220   59.9920   49.4690 C.3   230  ASN230      0.1770
     84  C         -0.9270   60.7500   50.4210 C.2   230  ASN230      0.2439
     85  O         -0.6720   60.7940   51.6320 O.2   230  ASN230     -0.2733
     86  CB         0.8960   61.0290   48.7690 C.3   230  ASN230      0.1168
     87  CG         2.1380   60.4380   48.1320 C.2   230  ASN230      0.2627
     88  OD1        2.7900   61.1070   47.3320 O.2   230  ASN230     -0.2716
     89  ND2        2.4750   59.2050   48.4750 N.am  230  ASN230     -0.0877
     90  N         -1.9900   61.3710   49.8970 N.am  231  PRO231     -0.2729
     91  CA        -2.8700   62.2000   50.7380 C.3   231  PRO231      0.1401
     92  C         -3.8650   61.4170   51.5510 C.2   231  PRO231      0.2269
     93  O         -4.6500   61.9950   52.2770 O.2   231  PRO231     -0.2865
     94  CB        -3.6210   63.0930   49.7200 C.3   231  PRO231      0.0296
     95  CG        -2.9870   62.8250   48.4050 C.3   231  PRO231      0.0237
     96  CD        -2.4450   61.3730   48.4970 C.3   231  PRO231      0.0939
     97  N          2.0040   62.2730   54.7220 N.3   238  TYR238     -0.1241
     98  CA         1.5120   63.0860   53.6450 C.3   238  TYR238      0.1605
     99  C          2.2790   64.4070   53.4930 C.2   238  TYR238      0.2264
    100  O          2.4980   64.8570   52.3870 O.2   238  TYR238     -0.2867
    101  CB         0.0370   63.3490   53.8670 C.3   238  TYR238      0.0534
    102  CG        -0.6650   64.1930   52.8250 C.ar  238  TYR238     -0.0201
    103  CD1       -0.1230   64.4290   51.5580 C.ar  238  TYR238     -0.0009
    104  CD2       -1.9240   64.7320   53.1010 C.ar  238  TYR238     -0.0009
    105  CE1       -0.8050   65.2010   50.6270 C.ar  238  TYR238      0.0417
    106  CE2       -2.6080   65.4900   52.1570 C.ar  238  TYR238      0.0417
    107  CZ        -2.0470   65.7260   50.9400 C.ar  238  TYR238      0.1957
    108  OH        -2.7440   66.4920   50.0330 O.3   238  TYR238     -0.2866
    109  N          5.6450   63.8020   51.7580 N.3   241  TRP241     -0.1227
    110  CA         5.3930   63.5740   50.3350 C.3   241  TRP241      0.1737
    111  C          5.0400   64.9060   49.6220 C.2   241  TRP241      0.2596
    112  O          5.5750   65.2260   48.5800 O.2   241  TRP241     -0.2718
    113  CB         4.2580   62.5610   50.1520 C.3   241  TRP241      0.0564
    114  CG         4.6320   61.1300   50.5010 C.ar  241  TRP241      0.0003
    115  CD1        3.9740   60.2810   51.3580 C.ar  241  TRP241      0.0946
    116  CD2        5.7460   60.3940   49.9880 C.ar  241  TRP241      0.0152
    117  NE1        4.6270   59.0730   51.4200 N.ar  241  TRP241     -0.2442
    118  CE2        5.7100   59.1060   50.5840 C.ar  241  TRP241      0.0810
    119  CE3        6.7860   60.6940   49.0930 C.ar  241  TRP241      0.0012
    120  CZ2        6.6570   58.1340   50.3170 C.ar  241  TRP241      0.0191
    121  CZ3        7.7310   59.7200   48.8220 C.ar  241  TRP241      0.0001
    122  CH2        7.6610   58.4480   49.4330 C.ar  241  TRP241      0.0015
    123  N          4.1410   65.6850   50.1920 N.am  242  THR242     -0.1953
    124  CA         3.8520   67.0140   49.6460 C.3   242  THR242      0.1897
    125  C          5.1210   67.8310   49.4710 C.2   242  THR242      0.2313
    126  O          5.3700   68.3840   48.4160 O.2   242  THR242     -0.2863
    127  CB         2.8830   67.7310   50.5460 C.3   242  THR242      0.1794
    128  OG1        1.6190   67.0550   50.4740 O.3   242  THR242     -0.2208
    129  CG2        2.6260   69.2010   50.0510 C.3   242  THR242      0.0378
    130  N          7.2500   66.3410   46.3890 N.3   245  ILE245     -0.1231
    131  CA         6.6590   66.4520   45.0640 C.3   245  ILE245      0.1692
    132  C          6.7680   67.8940   44.5970 C.2   245  ILE245      0.2591
    133  O          7.0670   68.1620   43.4420 O.2   245  ILE245     -0.2718
    134  CB         5.1690   65.9490   45.0760 C.3   245  ILE245      0.0266
    135  CG1        4.5940   65.7780   43.6690 C.3   245  ILE245      0.0019
    136  CG2        4.2570   66.9220   45.8180 C.3   245  ILE245      0.0020
    137  CD1        5.4310   65.0210   42.6900 C.3   245  ILE245      0.0001
    138  N          6.5620   68.8020   45.5390 N.am  246  MET246     -0.1979
    139  CA         6.6120   70.2480   45.2920 C.3   246  MET246      0.1605
    140  C          8.0080   70.7830   45.0610 C.2   246  MET246      0.2287
    141  O          8.1770   71.6890   44.2600 O.2   246  MET246     -0.2864
    142  CB         5.9670   70.9920   46.4480 C.3   246  MET246      0.0413
    143  CG         4.4750   70.7310   46.5610 C.3   246  MET246      0.0598
    144  SD         3.6640   71.3990   45.1650 S.3   246  MET246     -0.1393
    145  CE         2.6850   70.2100   44.7000 C.3   246  MET246      0.0692
    146  N          8.4990   69.7300   41.4730 N.3   249  PHE249     -0.1241
    147  CA         7.7280   70.5540   40.5660 C.3   249  PHE249      0.1605
    148  C          8.3210   71.9730   40.4540 C.2   249  PHE249      0.2264
    149  O          8.3910   72.5220   39.3570 O.2   249  PHE249     -0.2867
    150  CB         6.2720   70.6540   41.0370 C.3   249  PHE249      0.0534
    151  CG         5.3970   69.4380   40.7250 C.ar  249  PHE249     -0.0203
    152  CD1        5.9090   68.2610   40.2340 C.ar  249  PHE249     -0.0042
    153  CD2        4.0290   69.5200   40.9450 C.ar  249  PHE249     -0.0042
    154  CE1        5.0610   67.1680   39.9620 C.ar  249  PHE249     -0.0003
    155  CE2        3.1820   68.4650   40.6830 C.ar  249  PHE249     -0.0003
    156  CZ         3.6870   67.2840   40.1930 C.ar  249  PHE249     -0.0000
    157  N          3.7910   76.5980   34.0280 N.3   264  SER264     -0.1217
    158  CA         2.4210   76.3140   34.4590 C.3   264  SER264      0.1889
    159  C          2.2930   76.7460   35.9170 C.2   264  SER264      0.2288
    160  O          3.1810   76.4440   36.7230 O.2   264  SER264     -0.2866
    161  CB         2.0700   74.8270   34.3000 C.3   264  SER264      0.2089
    162  OG         0.8010   74.5310   34.8690 O.3   264  SER264     -0.2183
    163  N          1.3240   75.9320   38.6990 N.3   266  MET266     -0.1245
    164  CA         1.5030   75.0440   39.8390 C.3   266  MET266      0.1570
    165  C          2.9330   74.5930   40.1680 C.2   266  MET266      0.2261
    166  O          3.1030   73.9110   41.1680 O.2   266  MET266     -0.2867
    167  CB         0.6630   73.7890   39.6160 C.3   266  MET266      0.0387
    168  CG        -0.6100   73.7540   40.4080 C.3   266  MET266      0.0595
    169  SD        -1.0470   72.0500   40.7370 S.3   266  MET266     -0.1393
    170  CE        -2.8120   72.2940   41.3780 C.3   266  MET266      0.0692
    171  N         -2.8760   74.2330   46.2390 N.3   276  SER276     -0.1202
    172  CA        -2.6760   73.2560   45.2110 C.3   276  SER276      0.2020
    173  C         -2.9300   71.8110   45.7660 C.2   276  SER276      0.2618
    174  O         -3.4260   70.9580   45.0310 O.2   276  SER276     -0.2717
    175  CB        -1.2880   73.4420   44.5840 C.3   276  SER276      0.2103
    176  OG        -0.3030   72.7620   45.3460 O.3   276  SER276     -0.2182
    177  N         -2.6520   71.5440   47.0430 N.am  277  GLN277     -0.1979
    178  CA        -2.9790   70.2290   47.6230 C.3   277  GLN277      0.1601
    179  C         -4.4930   70.0520   47.7950 C.2   277  GLN277      0.2287
    180  O         -4.9990   68.9300   47.7020 O.2   277  GLN277     -0.2864
    181  CB        -2.3350   70.0020   49.0050 C.3   277  GLN277      0.0394
    182  CG        -0.9000   69.5220   49.0530 C.3   277  GLN277      0.0908
    183  CD        -0.5930   68.4210   48.0610 C.2   277  GLN277      0.2608
    184  OE1        0.2370   68.6060   47.1810 O.2   277  GLN277     -0.2717
    185  NE2       -1.2710   67.2910   48.1870 N.am  277  GLN277     -0.0878
    186  N         -5.7250   69.4440   44.2660 N.3   280  PHE280     -0.1241
    187  CA        -5.3140   68.0850   43.9600 C.3   280  PHE280      0.1605
    188  C         -6.2580   67.0720   44.5880 C.2   280  PHE280      0.2264
    189  O         -6.6780   66.1280   43.9200 O.2   280  PHE280     -0.2867
    190  CB        -3.8780   67.8420   44.4330 C.3   280  PHE280      0.0534
    191  CG        -3.3340   66.4710   44.0800 C.ar  280  PHE280     -0.0203
    192  CD1       -3.4570   65.9640   42.7970 C.ar  280  PHE280     -0.0042
    193  CD2       -2.6730   65.7000   45.0490 C.ar  280  PHE280     -0.0042
    194  CE1       -2.9420   64.7210   42.4830 C.ar  280  PHE280     -0.0003
    195  CE2       -2.1500   64.4390   44.7380 C.ar  280  PHE280     -0.0003
    196  CZ        -2.2910   63.9580   43.4590 C.ar  280  PHE280     -0.0000
    197  N         -9.0300   65.3850   41.9240 N.3   284  ILE284     -0.1245
    198  CA        -8.4100   64.1510   41.4440 C.3   284  ILE284      0.1561
    199  C         -8.4320   63.0400   42.4800 C.2   284  ILE284      0.2260
    200  O         -8.9740   61.9780   42.2100 O.2   284  ILE284     -0.2867
    201  CB        -6.9670   64.4230   40.9260 C.3   284  ILE284      0.0252
    202  CG1       -6.9930   65.3380   39.6930 C.3   284  ILE284      0.0019
    203  CG2       -6.2530   63.1250   40.5700 C.3   284  ILE284      0.0019
    204  CD1       -5.6710   66.0250   39.3990 C.3   284  ILE284      0.0001
@<TRIPOS>BOND
     1    60    61    2
     2    60    59    1
     3    58    59    1
     4   157   158    1
     5   161   158    1
     6   161   162    1
     7   158   159    1
     8    59    62    1
     9    51    52    1
    10    53    54    2
    11    53    52    1
    12    62    63    1
    13    56    55    1
    14    52    55    1
    15   159   160    2
    16    42    41    1
    17    42    43    1
    18    42    45    1
    19    43    44    2
    20    50    48   ar
    21    50    49   ar
    22    55    57    1
    23    48    46   ar
    24    49    47   ar
    25    46    47   ar
    26    46    45    1
    27    63    64    1
    28    65    64    1
    29    39    38   ar
    30    35    34    1
    31    35    36    2
    32    34    33    1
    33    34    37    1
    34   163   164    1
    35    38    37    1
    36    38    40   ar
    37   149   148    2
    38   204   202    1
    39   167   164    1
    40   167   168    1
    41   202   201    1
    42    72    71   ar
    43   164   165    1
    44    21    22   ar
    45    21    19   ar
    46    22    20   ar
    47   154   156   ar
    48   154   152   ar
    49    19    18   ar
    50   165   166    2
    51    20    18   ar
    52   156   155   ar
    53   152   151   ar
    54    18    17    1
    55   168   169    1
    56   148   147    1
    57    17    14    1
    58   147   150    1
    59   147   146    1
    60   203   201    1
    61   155   153   ar
    62   151   153   ar
    63   151   150    1
    64   169   170    1
    65    71    70    1
    66    71    73   ar
    67   201   198    1
    68    16    15    2
    69    80    79    1
    70   198   197    1
    71   198   199    1
    72    70    67    1
    73    81    79    1
    74    79    78    1
    75    14    15    1
    76    14    13    1
    77   200   199    2
    78   194   192   ar
    79   194   196   ar
    80    32    30   ar
    81    32    31   ar
    82   137   135    1
    83    13     3   am
    84   192   191   ar
    85    30    28   ar
    86    67    66    1
    87    67    68    1
    88    78    75    1
    89   133   132    2
    90   196   195   ar
    91     8    10   ar
    92     8     6   ar
    93    68    74   am
    94    68    69    2
    95    74    75    1
    96   135   134    1
    97    10    11   ar
    98    31    29   ar
    99   189   188    2
   100   187   186    1
   101   187   190    1
   102   187   188    1
   103     3     2    1
   104     3     4    2
   105   191   190    1
   106   191   193   ar
   107    75    76    1
   108     5     6    1
   109     5     2    1
   110    28    29   ar
   111    28    27    1
   112   141   140    2
   113     6     7   ar
   114     1     2    1
   115   175   172    1
   116   175   176    1
   117   132   131    1
   118   132   138   am
   119   145   144    1
   120   195   193   ar
   121    11    12    1
   122    11     9   ar
   123    27    24    1
   124   174   173    2
   125   140   139    1
   126   131   134    1
   127   131   130    1
   128   134   136    1
   129   144   143    1
   130   172   173    1
   131   172   171    1
   132   139   138    1
   133   139   142    1
   134    25    26    2
   135    25    24    1
   136    76    77    2
   137     7     9   ar
   138   173   177   am
   139    24    23    1
   140   142   143    1
   141   177   178    1
   142   184   183    2
   143    88    87    2
   144   178   179    1
   145   178   181    1
   146   180   179    2
   147   183   185   am
   148   183   182    1
   149    87    89   am
   150    87    86    1
   151    95    96    1
   152    95    94    1
   153   126   125    2
   154    82    83    1
   155    96    90    1
   156   112   111    2
   157    86    83    1
   158   121   119   ar
   159   121   122   ar
   160   181   182    1
   161   119   116   ar
   162   122   120   ar
   163    83    84    1
   164   125   124    1
   165   111   123   am
   166   111   110    1
   167   124   123    1
   168   124   127    1
   169    94    91    1
   170    90    84   am
   171    90    91    1
   172   116   114   ar
   173   116   118   ar
   174   108   107    1
   175   129   127    1
   176   113   110    1
   177   113   114    1
   178   120   118   ar
   179   110   109    1
   180    84    85    2
   181   128   127    1
   182   114   115   ar
   183   118   117   ar
   184   105   107   ar
   185   105   103   ar
   186    91    92    1
   187   107   106   ar
   188   115   117   ar
   189    92    93    2
   190   103   102   ar
   191   106   104   ar
   192   100    99    2
   193   102   104   ar
   194   102   101    1
   195    99    98    1
   196    98   101    1
   197    98    97    1
