@<TRIPOS>MOLECULE
tmp/1xotA00.pdb
 217 212 0 0 0
SMALL
GASTEIGER

@<TRIPOS>ATOM
      1  N         44.4330   11.7000   63.0690 N.3    70  TYR70      -0.1227
      2  CA        44.6860   10.5310   62.2570 C.3    70  TYR70       0.1736
      3  C         43.9940   10.5610   60.8860 C.2    70  TYR70       0.2595
      4  O         44.6190   10.2990   59.8900 O.2    70  TYR70      -0.2718
      5  CB        44.3100    9.2540   63.0330 C.3    70  TYR70       0.0548
      6  CG        44.5700    7.9600   62.2590 C.ar   70  TYR70      -0.0200
      7  CD1       45.8050    7.3140   62.3130 C.ar   70  TYR70      -0.0009
      8  CD2       43.5820    7.4000   61.4650 C.ar   70  TYR70      -0.0009
      9  CE1       46.0400    6.1390   61.6080 C.ar   70  TYR70       0.0417
     10  CE2       43.8080    6.2230   60.7200 C.ar   70  TYR70       0.0417
     11  CZ        45.0440    5.5980   60.8030 C.ar   70  TYR70       0.1957
     12  OH        45.2540    4.4310   60.1010 O.3    70  TYR70      -0.2866
     13  N         42.7170   10.8950   60.8460 N.am   71  HIS71      -0.1975
     14  CA        41.9540   10.8270   59.6350 C.3    71  HIS71       0.1656
     15  C         42.0630   12.0620   58.6960 C.2    71  HIS71       0.2291
     16  O         41.0700   12.5340   58.1690 O.2    71  HIS71      -0.2864
     17  CB        40.5120   10.5400   60.0110 C.3    71  HIS71       0.0771
     18  CG        40.2950    9.1680   60.5990 C.ar   71  HIS71       0.0820
     19  ND1       40.2380    8.9410   61.9530 N.ar   71  HIS71      -0.2267
     20  CD2       40.0840    7.9630   60.0150 C.ar   71  HIS71       0.1154
     21  CE1       40.0270    7.6600   62.1810 C.ar   71  HIS71       0.1986
     22  NE2       39.9050    7.0440   61.0260 N.ar   71  HIS71      -0.2212
     23  N         46.7160   10.0000   55.9910 N.3    75  HIS75      -0.1241
     24  CA        46.2010    8.6380   56.1370 C.3    75  HIS75       0.1621
     25  C         45.5970    8.1720   54.8010 C.2    75  HIS75       0.2264
     26  O         45.7920    7.0040   54.4210 O.2    75  HIS75      -0.2867
     27  CB        45.2200    8.5160   57.3080 C.3    75  HIS75       0.0745
     28  CG        44.4200    7.2560   57.2820 C.ar   75  HIS75       0.0817
     29  ND1       45.0040    6.0050   57.2370 N.ar   75  HIS75      -0.2268
     30  CD2       43.0850    7.0440   57.2790 C.ar   75  HIS75       0.1154
     31  CE1       44.0610    5.0780   57.2440 C.ar   75  HIS75       0.1986
     32  NE2       42.8860    5.6740   57.2620 N.ar   75  HIS75      -0.2212
     33  N         38.1010    8.3140   53.4140 N.3   112  ASP112     -0.1239
     34  CA        37.7980    8.9480   54.7240 C.3   112  ASP112      0.1674
     35  C         37.6480   10.4630   54.5960 C.2   112  ASP112      0.2266
     36  O         37.7740   11.1700   55.6030 O.2   112  ASP112     -0.2867
     37  CB        38.9200    8.7420   55.7190 C.3   112  ASP112      0.1410
     38  CG        38.8590    7.4660   56.4370 C.2   112  ASP112      0.3668
     39  OD1       37.7440    6.9620   56.7600 O.co2 112  ASP112     -0.2456
     40  OD2       39.9420    6.9130   56.7680 O.co2 112  ASP112     -0.2456
     41  N         36.2770   13.4000   57.1970 N.3   115  HIS115     -0.1241
     42  CA        36.1240   12.7000   58.4900 C.3   115  HIS115      0.1621
     43  C         36.2440   13.7310   59.5860 C.2   115  HIS115      0.2264
     44  O         37.2210   14.4850   59.5820 O.2   115  HIS115     -0.2867
     45  CB        37.2510   11.6660   58.6260 C.3   115  HIS115      0.0745
     46  CG        36.9850   10.5920   59.6190 C.ar  115  HIS115      0.0817
     47  ND1       36.8210   10.8400   60.9670 N.ar  115  HIS115     -0.2268
     48  CD2       36.8980    9.2480   59.4620 C.ar  115  HIS115      0.1154
     49  CE1       36.6060    9.6920   61.5860 C.ar  115  HIS115      0.1986
     50  NE2       36.6460    8.7140   60.6930 N.ar  115  HIS115     -0.2212
     51  N         35.1180   -0.4230   54.1510 N.3   182  THR182     -0.1218
     52  CA        36.0380    0.0090   55.2020 C.3   182  THR182      0.1862
     53  C         35.3800    0.2700   56.5500 C.2   182  THR182      0.2287
     54  O         36.0390    0.6960   57.4750 O.2   182  THR182     -0.2866
     55  CB        36.7610    1.2680   54.8330 C.3   182  THR182      0.1770
     56  OG1       35.8280    2.3560   54.6680 O.3   182  THR182     -0.2211
     57  CG2       37.5040    1.0830   53.4930 C.3   182  THR182      0.0375
     58  N         34.2350   -0.6260   59.8460 N.3   184  MET184     -0.1245
     59  CA        34.6310   -1.6420   60.7770 C.3   184  MET184      0.1570
     60  C         33.5380   -2.5480   61.3370 C.2   184  MET184      0.2261
     61  O         33.8300   -3.6890   61.6850 O.2   184  MET184     -0.2867
     62  CB        35.4920   -1.0280   61.8740 C.3   184  MET184      0.0387
     63  CG        36.9810   -0.8620   61.3700 C.3   184  MET184      0.0595
     64  SD        37.9850   -2.4210   61.3170 S.3   184  MET184     -0.1393
     65  CE        37.6580   -2.9970   62.9260 C.3   184  MET184      0.0692
     66  N         43.7900   -0.1700   54.7150 N.3   229  ASP229     -0.1225
     67  CA        43.2990    0.6520   55.8240 C.3   229  ASP229      0.1805
     68  C         43.7450    0.2320   57.2100 C.2   229  ASP229      0.2597
     69  O         43.8030    1.0540   58.1240 O.2   229  ASP229     -0.2718
     70  CB        41.7810    0.5420   55.8330 C.3   229  ASP229      0.1424
     71  CG        41.1130    1.7510   56.4250 C.2   229  ASP229      0.3668
     72  OD1       39.9210    1.6910   56.6210 O.co2 229  ASP229     -0.2456
     73  OD2       41.6560    2.8330   56.6610 O.co2 229  ASP229     -0.2456
     74  N         43.9170   -1.0700   57.3850 N.am  230  LEU230     -0.1979
     75  CA        44.3820   -1.6330   58.6330 C.3   230  LEU230      0.1596
     76  C         45.7940   -2.1250   58.4270 C.2   230  LEU230      0.2287
     77  O         46.1680   -3.1590   58.9070 O.2   230  LEU230     -0.2864
     78  CB        43.5200   -2.8050   59.0690 C.3   230  LEU230      0.0297
     79  CG        42.0570   -2.5240   59.3370 C.3   230  LEU230      0.0022
     80  CD1       41.4530   -3.8010   59.8100 C.3   230  LEU230      0.0001
     81  CD2       41.9110   -1.4730   60.3760 C.3   230  LEU230      0.0001
     82  N         48.6680   -0.1380   59.1510 N.3   232  ASN232     -0.1226
     83  CA        49.7060    0.5470   59.9270 C.3   232  ASN232      0.1770
     84  C         50.6370   -0.4180   60.6350 C.2   232  ASN232      0.2439
     85  O         51.8420   -0.2820   60.4580 O.2   232  ASN232     -0.2733
     86  CB        49.1560    1.5460   60.9620 C.3   232  ASN232      0.1168
     87  CG        48.3880    2.6670   60.3440 C.2   232  ASN232      0.2627
     88  OD1       47.5310    3.2330   61.0050 O.2   232  ASN232     -0.2716
     89  ND2       48.6920    3.0150   59.0680 N.am  232  ASN232     -0.0877
     90  N         50.0900   -1.3960   61.3900 N.am  233  PRO233     -0.2729
     91  CA        50.9340   -2.3440   62.1370 C.3   233  PRO233      0.1401
     92  C         51.8040   -3.2530   61.3060 C.2   233  PRO233      0.2269
     93  O         52.6730   -3.8830   61.9000 O.2   233  PRO233     -0.2865
     94  CB        49.9180   -3.1910   62.9670 C.3   233  PRO233      0.0296
     95  CG        48.6480   -2.4610   62.8930 C.3   233  PRO233      0.0237
     96  CD        48.6680   -1.7200   61.5630 C.3   233  PRO233      0.0939
     97  N         54.9210    2.5810   62.1940 N.3   240  TYR240     -0.1241
     98  CA        53.7900    2.1130   62.9740 C.3   240  TYR240      0.1605
     99  C         53.5880    2.9340   64.2560 C.2   240  TYR240      0.2264
    100  O         52.4380    3.2350   64.6100 O.2   240  TYR240     -0.2867
    101  CB        53.9470    0.6040   63.2620 C.3   240  TYR240      0.0534
    102  CG        52.8900   -0.0650   64.1400 C.ar  240  TYR240     -0.0201
    103  CD1       51.5590    0.3550   64.1790 C.ar  240  TYR240     -0.0009
    104  CD2       53.2340   -1.1560   64.9080 C.ar  240  TYR240     -0.0009
    105  CE1       50.6260   -0.3070   64.9930 C.ar  240  TYR240      0.0417
    106  CE2       52.3190   -1.8140   65.6760 C.ar  240  TYR240      0.0417
    107  CZ        51.0220   -1.3920   65.7310 C.ar  240  TYR240      0.1957
    108  OH        50.1680   -2.1020   66.5790 O.3   240  TYR240     -0.2866
    109  N         51.9410    6.2510   63.5810 N.3   243  TRP243     -0.1227
    110  CA        50.5130    6.0770   63.3380 C.3   243  TRP243      0.1737
    111  C         49.7740    5.8410   64.6650 C.2   243  TRP243      0.2596
    112  O         48.7100    6.4130   64.8730 O.2   243  TRP243     -0.2718
    113  CB        50.2320    4.9340   62.3800 C.3   243  TRP243      0.0564
    114  CG        50.6620    5.1740   61.0070 C.ar  243  TRP243      0.0003
    115  CD1       51.5550    4.4340   60.3230 C.ar  243  TRP243      0.0946
    116  CD2       50.1970    6.1930   60.1010 C.ar  243  TRP243      0.0152
    117  NE1       51.7050    4.9300   59.0640 N.ar  243  TRP243     -0.2442
    118  CE2       50.8910    6.0180   58.9000 C.ar  243  TRP243      0.0810
    119  CE3       49.2900    7.2490   60.2040 C.ar  243  TRP243      0.0012
    120  CZ2       50.6900    6.8390   57.7690 C.ar  243  TRP243      0.0191
    121  CZ3       49.0820    8.0820   59.1060 C.ar  243  TRP243      0.0001
    122  CH2       49.7780    7.8750   57.8960 C.ar  243  TRP243      0.0015
    123  N         50.3290    5.0150   65.5530 N.am  244  THR244     -0.1953
    124  CA        49.6830    4.7330   66.8610 C.3   244  THR244      0.1897
    125  C         49.4480    6.0200   67.6360 C.2   244  THR244      0.2313
    126  O         48.3580    6.2610   68.1250 O.2   244  THR244     -0.2863
    127  CB        50.5250    3.7690   67.7170 C.3   244  THR244      0.1794
    128  OG1       50.6350    2.5010   67.0610 O.3   244  THR244     -0.2208
    129  CG2       49.8110    3.4240   69.0120 C.3   244  THR244      0.0378
    130  N         46.4510    7.8950   66.0010 N.3   247  ILE247     -0.1231
    131  CA        45.1360    7.2610   66.1940 C.3   247  ILE247      0.1692
    132  C         44.6620    7.3690   67.6640 C.2   247  ILE247      0.2591
    133  O         43.4660    7.5530   67.8870 O.2   247  ILE247     -0.2718
    134  CB        45.1230    5.7920   65.7070 C.3   247  ILE247      0.0266
    135  CG1       43.7100    5.2270   65.6670 C.3   247  ILE247      0.0019
    136  CG2       45.8960    4.8900   66.6560 C.3   247  ILE247      0.0020
    137  CD1       42.8360    5.7390   64.5550 C.3   247  ILE247      0.0001
    138  N         45.5800    7.2560   68.6310 N.am  248  MET248     -0.1979
    139  CA        45.2270    7.3650   70.0650 C.3   248  MET248      0.1605
    140  C         44.9130    8.7860   70.4930 C.2   248  MET248      0.2287
    141  O         44.0320    8.9810   71.3080 O.2   248  MET248     -0.2864
    142  CB        46.3170    6.7970   70.9790 C.3   248  MET248      0.0413
    143  CG        46.5150    5.2950   70.8270 C.3   248  MET248      0.0598
    144  SD        45.0140    4.3860   70.9490 S.3   248  MET248     -0.1393
    145  CE        44.7490    4.4740   72.7550 C.3   248  MET248      0.0692
    146  N         41.3660    9.1840   69.1980 N.3   251  PHE251     -0.1241
    147  CA        40.4720    8.4030   70.0950 C.3   251  PHE251      0.1605
    148  C         40.3370    8.9930   71.4720 C.2   251  PHE251      0.2264
    149  O         39.3010    8.8530   72.0860 O.2   251  PHE251     -0.2867
    150  CB        40.9740    6.9860   70.3000 C.3   251  PHE251      0.0534
    151  CG        40.7140    6.0720   69.1610 C.ar  251  PHE251     -0.0203
    152  CD1       40.3110    6.5480   67.9180 C.ar  251  PHE251     -0.0042
    153  CD2       40.9150    4.7220   69.3110 C.ar  251  PHE251     -0.0042
    154  CE1       40.1020    5.6910   66.8540 C.ar  251  PHE251     -0.0003
    155  CE2       40.7050    3.8540   68.2540 C.ar  251  PHE251     -0.0003
    156  CZ        40.2990    4.3390   67.0310 C.ar  251  PHE251     -0.0000
    157  N         33.8660    5.0650   76.1550 N.3   266  SER266     -0.1203
    158  CA        34.3260    3.7800   75.6810 C.3   266  SER266      0.2005
    159  C         35.7380    3.5020   76.3230 C.2   266  SER266      0.2461
    160  O         36.6090    4.3600   76.2760 O.2   266  SER266     -0.2732
    161  CB        34.3330    3.8430   74.1410 C.3   266  SER266      0.2103
    162  OG        33.5250    4.9540   73.6220 O.3   266  SER266     -0.2182
    163  N         35.9260    2.3530   76.9810 N.am  267  PRO267     -0.2717
    164  CA        37.1780    2.0000   77.6960 C.3   267  PRO267      0.1535
    165  C         38.5620    2.2410   77.0610 C.2   267  PRO267      0.2598
    166  O         39.5190    2.5000   77.7940 O.2   267  PRO267     -0.2715
    167  CB        37.0210    0.4960   77.9210 C.3   267  PRO267      0.0310
    168  CG        35.5280    0.3020   78.0680 C.3   267  PRO267      0.0237
    169  CD        34.8920    1.3120   77.1520 C.3   267  PRO267      0.0939
    170  N         38.6580    2.1270   75.7480 N.am  268  MET268     -0.1964
    171  CA        39.9010    2.2880   75.0120 C.3   268  MET268      0.1736
    172  C         40.0230    3.7110   74.4330 C.2   268  MET268      0.2616
    173  O         41.0500    4.0570   73.8160 O.2   268  MET268     -0.2715
    174  CB        39.9520    1.1960   73.9250 C.3   268  MET268      0.0427
    175  CG        40.8680    1.4130   72.7120 C.3   268  MET268      0.0599
    176  SD        40.4320    0.1740   71.3800 S.3   268  MET268     -0.1393
    177  CE        40.3960   -1.4780   72.5180 C.3   268  MET268      0.0692
    178  N         38.9520    4.5000   74.5770 N.am  269  CYS269     -0.1968
    179  CA        38.9610    5.9250   74.2640 C.3   269  CYS269      0.1712
    180  C         39.2360    6.7670   75.5730 C.2   269  CYS269      0.2296
    181  O         39.4180    7.9740   75.5110 O.2   269  CYS269     -0.2864
    182  CB        37.6330    6.3270   73.6010 C.3   269  CYS269      0.0983
    183  SG        37.3010    5.6090   71.9340 S.3   269  CYS269     -0.0798
    184  N         46.1350   -2.0090   74.2940 N.3   279  SER279     -0.1202
    185  CA        45.1420   -1.7510   73.3130 C.3   279  SER279      0.2020
    186  C         45.7230   -2.0260   71.8760 C.2   279  SER279      0.2618
    187  O         44.9880   -2.4670   71.0100 O.2   279  SER279     -0.2717
    188  CB        44.6270   -0.3420   73.5320 C.3   279  SER279      0.2103
    189  OG        45.2510    0.4920   72.5700 O.3   279  SER279     -0.2182
    190  N         47.0300   -1.8200   71.6480 N.am  280  GLN280     -0.1979
    191  CA        47.6510   -2.1560   70.3450 C.3   280  GLN280      0.1601
    192  C         47.8080   -3.6610   70.1590 C.2   280  GLN280      0.2287
    193  O         47.6360   -4.1740   69.0510 O.2   280  GLN280     -0.2864
    194  CB        49.0500   -1.5300   70.1630 C.3   280  GLN280      0.0394
    195  CG        49.0890   -0.1320   69.5930 C.3   280  GLN280      0.0908
    196  CD        47.9620    0.1840   68.6200 C.2   280  GLN280      0.2608
    197  OE1       48.0160   -0.1610   67.4210 O.2   280  GLN280     -0.2717
    198  NE2       46.9420    0.8490   69.1280 N.am  280  GLN280     -0.0878
    199  N         44.3860   -5.0980   69.5050 N.3   283  PHE283     -0.1241
    200  CA        44.0100   -4.7250   68.1400 C.3   283  PHE283      0.1605
    201  C         44.6960   -5.6640   67.1300 C.2   283  PHE283      0.2264
    202  O         44.0740   -6.1150   66.1980 O.2   283  PHE283     -0.2867
    203  CB        44.3490   -3.2480   67.8960 C.3   283  PHE283      0.0534
    204  CG        44.0130   -2.7600   66.5070 C.ar  283  PHE283     -0.0203
    205  CD1       42.7350   -2.8890   65.9990 C.ar  283  PHE283     -0.0042
    206  CD2       44.9820   -2.1720   65.7210 C.ar  283  PHE283     -0.0042
    207  CE1       42.4280   -2.4490   64.7130 C.ar  283  PHE283     -0.0003
    208  CE2       44.6840   -1.7300   64.4200 C.ar  283  PHE283     -0.0003
    209  CZ        43.4040   -1.8520   63.9330 C.ar  283  PHE283     -0.0000
    210  N         42.0900   -8.2330   65.5570 N.3   287  ILE287     -0.1245
    211  CA        41.6680   -7.6210   64.2820 C.3   287  ILE287      0.1561
    212  C         42.6500   -7.7720   63.1380 C.2   287  ILE287      0.2260
    213  O         42.3390   -8.3840   62.1360 O.2   287  ILE287     -0.2867
    214  CB        41.3440   -6.1590   64.4850 C.3   287  ILE287      0.0252
    215  CG1       40.2520   -6.0060   65.5540 C.3   287  ILE287      0.0019
    216  CG2       40.9390   -5.5260   63.1720 C.3   287  ILE287      0.0019
    217  CD1       38.9190   -6.4980   65.1420 C.3   287  ILE287      0.0001
@<TRIPOS>BOND
     1    33    34    1
     2    57    55    1
     3    51    52    1
     4    26    25    2
     5    35    34    1
     6    35    36    2
     7    56    55    1
     8    66    67    1
     9    34    37    1
    10    25    24    1
    11    55    52    1
    12    52    53    1
    13    37    38    1
    14    67    70    1
    15    67    68    1
    16    70    71    1
    17    23    24    1
    18    24    27    1
    19    71    72   ar
    20    71    73   ar
    21    38    39   ar
    22    38    40   ar
    23    53    54    2
    24    41    42    1
    25    68    74   am
    26    68    69    2
    27    29    31   ar
    28    29    28   ar
    29    31    32   ar
    30    32    30   ar
    31    30    28   ar
    32    28    27    1
    33    74    75    1
    34   120   122   ar
    35   120   118   ar
    36   122   121   ar
    37    16    15    2
    38    76    75    1
    39    76    77    2
    40    42    45    1
    41    42    43    1
    42    45    46    1
    43    75    78    1
    44    15    14    1
    45   118   117   ar
    46   118   116   ar
    47   117   115   ar
    48    89    87   am
    49    78    79    1
    50   121   119   ar
    51    82    83    1
    52    79    80    1
    53    79    81    1
    54    48    46   ar
    55    48    50   ar
    56    44    43    2
    57    46    47   ar
    58    14    17    1
    59    14    13    1
    60    58    59    1
    61     4     3    2
    62    83    84    1
    63    83    86    1
    64    17    18    1
    65    20    18   ar
    66    20    22   ar
    67    12    11    1
    68   116   119   ar
    69   116   114   ar
    70   115   114   ar
    71    87    86    1
    72    87    88    2
    73    85    84    2
    74    18    19   ar
    75    84    90   am
    76    50    49   ar
    77    10    11   ar
    78    10     8   ar
    79    59    60    1
    80    59    62    1
    81    11     9   ar
    82    13     3   am
    83     3     2    1
    84    47    49   ar
    85   114   113    1
    86    22    21   ar
    87    92    93    2
    88    92    91    1
    89    64    63    1
    90    64    65    1
    91    60    61    2
    92    63    62    1
    93    90    96    1
    94    90    91    1
    95     8     6   ar
    96    96    95    1
    97     9     7   ar
    98    19    21   ar
    99   213   212    2
   100    91    94    1
   101    97    98    1
   102     2     5    1
   103     2     1    1
   104     6     7   ar
   105     6     5    1
   106   113   110    1
   107    95    94    1
   108    98   101    1
   109    98    99    1
   110   212   211    1
   111   216   214    1
   112   101   102    1
   113   110   109    1
   114   110   111    1
   115   209   208   ar
   116   209   207   ar
   117   102   103   ar
   118   102   104   ar
   119   103   105   ar
   120    99   100    2
   121   211   214    1
   122   211   210    1
   123   208   206   ar
   124   214   215    1
   125   137   135    1
   126   111   112    2
   127   111   123   am
   128   207   205   ar
   129   104   106   ar
   130   105   107   ar
   131   217   215    1
   132   123   124    1
   133   135   134    1
   134   106   107   ar
   135   134   131    1
   136   134   136    1
   137   206   204   ar
   138   107   108    1
   139   205   204   ar
   140   130   131    1
   141   131   132    1
   142   202   201    2
   143   204   203    1
   144   154   156   ar
   145   154   152   ar
   146   124   125    1
   147   124   127    1
   148   156   155   ar
   149   128   127    1
   150   201   200    1
   151   197   196    2
   152   125   126    2
   153   132   133    2
   154   132   138   am
   155   127   129    1
   156   203   200    1
   157   152   151   ar
   158   200   199    1
   159   155   153   ar
   160   196   198   am
   161   196   195    1
   162   138   139    1
   163   193   192    2
   164   151   153   ar
   165   151   150    1
   166   146   147    1
   167   195   194    1
   168   139   140    1
   169   139   142    1
   170   147   150    1
   171   147   148    1
   172   192   191    1
   173   194   191    1
   174   191   190    1
   175   140   141    2
   176   143   144    1
   177   143   142    1
   178   144   145    1
   179   187   186    2
   180   176   177    1
   181   176   175    1
   182   148   149    2
   183   190   186   am
   184   186   185    1
   185   183   182    1
   186   189   188    1
   187   175   174    1
   188   185   188    1
   189   185   184    1
   190   182   179    1
   191   162   161    1
   192   173   172    2
   193   174   171    1
   194   161   158    1
   195   179   178    1
   196   179   180    1
   197   172   178   am
   198   172   171    1
   199   171   170    1
   200   181   180    2
   201   158   157    1
   202   158   159    1
   203   170   165   am
   204   160   159    2
   205   159   163   am
   206   163   169    1
   207   163   164    1
   208   165   164    1
   209   165   166    2
   210   169   168    1
   211   164   167    1
   212   167   168    1
