@<TRIPOS>MOLECULE
tmp/1xovA00.pdb
 84 80 0 0 0
SMALL
GASTEIGER

@<TRIPOS>ATOM
      1  N         89.0720   18.5030   13.3180 N.3    11  HIS11      -0.1241
      2  CA        90.3910   19.1160   13.1020 C.3    11  HIS11       0.1621
      3  C         90.4190   20.6200   13.4230 C.2    11  HIS11       0.2264
      4  O         89.4470   21.1750   13.8990 O.2    11  HIS11      -0.2867
      5  CB        90.9040   18.7930   11.7000 C.3    11  HIS11       0.0745
      6  CG        90.8760   17.3250   11.3940 C.ar   11  HIS11       0.0817
      7  ND1       91.7750   16.4250   11.9320 N.ar   11  HIS11      -0.2268
      8  CD2       89.9870   16.5940   10.6720 C.ar   11  HIS11       0.1154
      9  CE1       91.4510   15.2020   11.5300 C.ar   11  HIS11       0.1986
     10  NE2       90.3590   15.2720   10.7600 N.ar   11  HIS11      -0.2212
     11  N         95.3990   20.7790   10.6710 N.3    16  VAL16      -0.1231
     12  CA        94.3550   20.4660    9.7220 C.3    16  VAL16       0.1692
     13  C         94.2130   18.9550    9.6000 C.2    16  VAL16       0.2593
     14  O         94.9610   18.2030   10.2260 O.2    16  VAL16      -0.2718
     15  CB        94.6100   21.1410    8.3860 C.3    16  VAL16       0.0266
     16  CG1       94.7810   22.6470    8.6050 C.3    16  VAL16       0.0020
     17  CG2       95.8190   20.5490    7.6650 C.3    16  VAL16       0.0020
     18  N         93.2120   18.5310    8.8370 N.am   17  GLY17      -0.1942
     19  CA        93.0320   17.1220    8.5860 C.3    17  GLY17       0.2014
     20  C         93.6620   16.7080    7.2890 C.2    17  GLY17       0.2638
     21  O         94.7360   17.2040    6.8880 O.2    17  GLY17      -0.2714
     22  N         92.9740   15.7940    6.6040 N.am   18  ALA18      -0.1977
     23  CA        93.4480   15.2940    5.3210 C.3    18  ALA18       0.1597
     24  C         93.3900   16.3630    4.2240 C.2    18  ALA18       0.2287
     25  O         92.5130   17.2290    4.2080 O.2    18  ALA18      -0.2864
     26  CB        92.6170   14.0920    4.9350 C.3    18  ALA18       0.0319
     27  N         89.8800   18.4170    3.6780 N.3    24  GLU24      -0.1245
     28  CA        88.9130   17.8960    4.6170 C.3    24  GLU24       0.1567
     29  C         88.2170   19.0040    5.3900 C.2    24  GLU24       0.2260
     30  O         86.9730   18.9840    5.5290 O.2    24  GLU24      -0.2867
     31  CB        89.5830   16.9190    5.6010 C.3    24  GLU24       0.0388
     32  CG        88.6790   16.5130    6.7470 C.3    24  GLU24       0.1160
     33  CD        89.1560   15.3950    7.6600 C.2    24  GLU24       0.3649
     34  OE1       90.3320   15.0290    7.6750 O.co2  24  GLU24      -0.2457
     35  OE2       88.2950   14.9960    8.4210 O.co2  24  GLU24      -0.2457
     36  N         97.1030   17.8480   17.8020 N.3    57  GLN57      -0.1245
     37  CA        95.9680   16.9220   17.7680 C.3    57  GLN57       0.1566
     38  C         95.3580   16.7920   19.1490 C.2    57  GLN57       0.2260
     39  O         94.1370   16.7970   19.3060 O.2    57  GLN57      -0.2867
     40  CB        96.4090   15.5390   17.3010 C.3    57  GLN57       0.0367
     41  CG        96.7330   15.4810   15.8170 C.3    57  GLN57       0.0905
     42  CD        96.9880   14.0600   15.3250 C.2    57  GLN57       0.2608
     43  OE1       96.8390   13.7770   14.1350 O.2    57  GLN57      -0.2717
     44  NE2       97.3730   13.1670   16.2370 N.am   57  GLN57      -0.0878
     45  N         83.7330   14.8170    9.4270 N.3    80  HIS80      -0.1226
     46  CA        85.0150   14.5390    8.8140 C.3    80  HIS80       0.1752
     47  C         84.8670   14.0910    7.3790 C.2    80  HIS80       0.2596
     48  O         83.7750   13.8270    6.8950 O.2    80  HIS80      -0.2718
     49  CB        85.7220   13.3960    9.6000 C.3    80  HIS80       0.0759
     50  CG        86.2050   13.7640   10.9640 C.ar   80  HIS80       0.0818
     51  ND1       87.5460   13.8480   11.2630 N.ar   80  HIS80      -0.2268
     52  CD2       85.5540   13.9320   12.1360 C.ar   80  HIS80       0.1154
     53  CE1       87.6950   14.1740   12.5260 C.ar   80  HIS80       0.1986
     54  NE2       86.4980   14.2230   13.0980 N.ar   80  HIS80      -0.2212
     55  N         85.9930   14.1110    6.6460 N.am   81  LEU81      -0.1966
     56  CA        86.1540   13.4350    5.3590 C.3    81  LEU81       0.1728
     57  C         87.3180   12.4830    5.4800 C.2    81  LEU81       0.2616
     58  O         88.2000   12.6710    6.2930 O.2    81  LEU81      -0.2715
     59  CB        86.4120   14.3650    4.1790 C.3    81  LEU81       0.0311
     60  CG        85.1940   14.9610    3.5100 C.3    81  LEU81       0.0022
     61  CD1       84.5360   15.9790    4.3960 C.3    81  LEU81       0.0001
     62  CD2       85.5630   15.5380    2.2240 C.3    81  LEU81       0.0001
     63  N         87.3200   11.4590    4.6330 N.am   82  ASN82      -0.1958
     64  CA        88.1750   10.3050    4.8600 C.3    82  ASN82       0.1819
     65  C         89.4250   10.3910    3.9710 C.2    82  ASN82       0.2621
     66  O         89.5200   11.1870    3.0520 O.2    82  ASN82      -0.2715
     67  CB        87.3800    9.0610    4.4530 C.3    82  ASN82       0.1195
     68  CG        87.5820    7.9100    5.3680 C.2    82  ASN82       0.2630
     69  OD1       88.6680    7.7450    5.9310 O.2    82  ASN82      -0.2716
     70  ND2       86.5300    7.0860    5.5290 N.am   82  ASN82      -0.0877
     71  N         90.3890    9.5190    4.2380 N.am   83  ALA83      -0.1977
     72  CA        91.5370    9.3830    3.3490 C.3    83  ALA83       0.1597
     73  C         91.9460    7.9190    3.3620 C.2    83  ALA83       0.2287
     74  O         91.6350    7.2270    4.3310 O.2    83  ALA83      -0.2864
     75  CB        92.6630   10.2130    3.8810 C.3    83  ALA83       0.0319
     76  N         82.1520   10.2990    8.2320 N.3   142  GLU142     -0.1245
     77  CA        83.1910   10.4330    7.1950 C.3   142  GLU142      0.1567
     78  C         82.4790   10.5470    5.8550 C.2   142  GLU142      0.2260
     79  O         82.1170    9.5680    5.1600 O.2   142  GLU142     -0.2867
     80  CB        84.1440    9.2670    7.2120 C.3   142  GLU142      0.0388
     81  CG        84.9930    9.1260    8.4450 C.3   142  GLU142      0.1160
     82  CD        86.1820   10.0640    8.4900 C.2   142  GLU142      0.3649
     83  OE1       86.2940   10.8670    7.5760 O.co2 142  GLU142     -0.2457
     84  OE2       87.0250   10.0160    9.4430 O.co2 142  GLU142     -0.2457
@<TRIPOS>BOND
     1    62    60    1
     2    66    65    2
     3    72    73    1
     4    72    75    1
     5    72    71    1
     6    73    74    2
     7    60    59    1
     8    60    61    1
     9    27    28    1
    10    65    71   am
    11    65    64    1
    12    59    56    1
    13    25    24    2
    14    24    23    1
    15    67    64    1
    16    67    68    1
    17    28    29    1
    18    28    31    1
    19    63    64    1
    20    63    57   am
    21    26    23    1
    22    79    78    2
    23    23    22    1
    24    56    57    1
    25    56    55    1
    26    68    70   am
    27    68    69    2
    28    29    30    2
    29    57    58    2
    30    31    32    1
    31    78    77    1
    32    22    20   am
    33    55    47   am
    34    32    33    1
    35    21    20    2
    36    48    47    2
    37    77    80    1
    38    77    76    1
    39    80    81    1
    40    20    19    1
    41    47    46    1
    42    83    82   ar
    43    33    34   ar
    44    33    35   ar
    45    17    15    1
    46    15    16    1
    47    15    12    1
    48    81    82    1
    49    82    84   ar
    50    19    18    1
    51    46    45    1
    52    46    49    1
    53    18    13   am
    54    49    50    1
    55    13    12    1
    56    13    14    2
    57    12    11    1
    58     8    10   ar
    59     8     6   ar
    60    10     9   ar
    61    50    51   ar
    62    50    52   ar
    63    51    53   ar
    64     6     5    1
    65     6     7   ar
    66     9     7   ar
    67     5     2    1
    68    52    54   ar
    69    53    54   ar
    70     2     1    1
    71     2     3    1
    72     3     4    2
    73    43    42    2
    74    42    41    1
    75    42    44   am
    76    41    40    1
    77    40    37    1
    78    37    36    1
    79    37    38    1
    80    38    39    2
