@<TRIPOS>MOLECULE
tmp/1xowA00.pdb
 134 126 0 0 0
SMALL
GASTEIGER

@<TRIPOS>ATOM
      1  N         30.7380    9.4320    9.5720 N.3    42  LEU42      -0.1231
      2  CA        30.9460    9.1070   10.9820 C.3    42  LEU42       0.1693
      3  C         31.4520   10.3480   11.7220 C.2    42  LEU42       0.2591
      4  O         31.0290   10.6310   12.8430 O.2    42  LEU42      -0.2718
      5  CB        31.9540    7.9630   11.1290 C.3    42  LEU42       0.0284
      6  CG        32.3430    7.5250   12.5490 C.3    42  LEU42       0.0019
      7  CD1       31.1150    7.0520   13.3240 C.3    42  LEU42       0.0001
      8  CD2       33.3740    6.4030   12.4610 C.3    42  LEU42       0.0001
      9  N         32.3570   11.0890   11.0890 N.am   43  VAL43      -0.1980
     10  CA        32.8960   12.3000   11.6990 C.3    43  VAL43       0.1595
     11  C         31.7640   13.2890   11.9650 C.2    43  VAL43       0.2287
     12  O         31.6930   13.8950   13.0300 O.2    43  VAL43      -0.2864
     13  CB        33.9530   12.9660   10.7920 C.3    43  VAL43       0.0276
     14  CG1       34.4210   14.2870   11.4200 C.3    43  VAL43       0.0022
     15  CG2       35.1370   12.0270   10.5970 C.3    43  VAL43       0.0022
     16  N         29.5080   12.1620   14.8620 N.3    46  VAL46      -0.1231
     17  CA        30.1310   12.4290   16.1540 C.3    46  VAL46       0.1692
     18  C         29.9390   13.9050   16.5240 C.2    46  VAL46       0.2591
     19  O         29.5230   14.2210   17.6340 O.2    46  VAL46      -0.2718
     20  CB        31.6480   12.0980   16.1270 C.3    46  VAL46       0.0266
     21  CG1       32.2990   12.5040   17.4470 C.3    46  VAL46       0.0020
     22  CG2       31.8480   10.6070   15.8840 C.3    46  VAL46       0.0020
     23  N         30.2380   14.8050   15.5910 N.am   47  LYS47      -0.1980
     24  CA        30.0800   16.2430   15.8470 C.3    47  LYS47       0.1596
     25  C         28.6200   16.5570   16.2080 C.2    47  LYS47       0.2287
     26  O         28.3470   17.3140   17.1390 O.2    47  LYS47      -0.2864
     27  CB        30.4990   17.0530   14.6130 C.3    47  LYS47       0.0298
     28  CG        31.9670   16.8810   14.2260 C.3    47  LYS47       0.0038
     29  CD        32.3120   17.6020   12.9190 C.3    47  LYS47       0.0206
     30  CE        32.2170   19.1130   13.0680 C.3    47  LYS47       0.1093
     31  NZ        32.6020   19.8270   11.8100 N.3    47  LYS47      -0.1314
     32  N         27.4770   14.9380   19.8250 N.3    50  LYS50      -0.1245
     33  CA        28.0610   15.6350   20.9710 C.3    50  LYS50       0.1561
     34  C         27.3900   16.9790   21.2500 C.2    50  LYS50       0.2260
     35  O         27.5080   17.5250   22.3460 O.2    50  LYS50      -0.2867
     36  CB        29.5660   15.8340   20.7630 C.3    50  LYS50       0.0271
     37  CG        30.3520   14.5210   20.7660 C.3    50  LYS50       0.0035
     38  CD        31.8580   14.7510   20.6330 C.3    50  LYS50       0.0206
     39  CE        32.4460   15.3970   21.8790 C.3    50  LYS50       0.1093
     40  NZ        33.9350   15.5540   21.7680 N.3    50  LYS50      -0.1314
     41  N         23.2430   15.4240   25.9080 N.3    55  PHE55      -0.1241
     42  CA        24.1850   14.3470   25.6260 C.3    55  PHE55       0.1605
     43  C         25.3220   14.2540   26.6490 C.2    55  PHE55       0.2264
     44  O         25.7930   13.1650   26.9750 O.2    55  PHE55      -0.2867
     45  CB        24.7830   14.5260   24.2340 C.3    55  PHE55       0.0534
     46  CG        25.5290   13.3170   23.7350 C.ar   55  PHE55      -0.0203
     47  CD1       24.8450   12.1570   23.3960 C.ar   55  PHE55      -0.0042
     48  CD2       26.9160   13.3450   23.5870 C.ar   55  PHE55      -0.0042
     49  CE1       25.5240   11.0420   22.9120 C.ar   55  PHE55      -0.0003
     50  CE2       27.6070   12.2380   23.1050 C.ar   55  PHE55      -0.0003
     51  CZ        26.9070   11.0800   22.7650 C.ar   55  PHE55      -0.0000
     52  N         30.9540    9.5460   29.7660 N.3    60  VAL60      -0.1231
     53  CA        31.7370    9.6240   28.5370 C.3    60  VAL60       0.1692
     54  C         31.8620    8.3060   27.7770 C.2    60  VAL60       0.2592
     55  O         31.8510    8.2990   26.5420 O.2    60  VAL60      -0.2718
     56  CB        33.1590   10.1650   28.8150 C.3    60  VAL60       0.0266
     57  CG1       33.9570    9.1480   29.6130 C.3    60  VAL60       0.0020
     58  CG2       33.8480   10.4980   27.5040 C.3    60  VAL60       0.0020
     59  N         31.9960    7.1950   28.4980 N.am   61  ASP61      -0.1974
     60  CA        32.1150    5.9070   27.8360 C.3    61  ASP61       0.1709
     61  C         30.8160    5.5270   27.1430 C.2    61  ASP61       0.2293
     62  O         30.8340    4.8490   26.1170 O.2    61  ASP61      -0.2864
     63  CB        32.5140    4.8090   28.8230 C.3    61  ASP61       0.1436
     64  CG        33.9510    4.9520   29.3010 C.2    61  ASP61       0.3671
     65  OD1       34.7970    5.4650   28.5260 O.co2  61  ASP61      -0.2456
     66  OD2       34.2300    4.5360   30.4450 O.co2  61  ASP61      -0.2456
     67  N         28.7120    7.7660   25.9570 N.3    63  GLN63      -0.1231
     68  CA        28.5910    8.6940   24.8410 C.3    63  GLN63       0.1698
     69  C         29.2460    8.0580   23.6150 C.2    63  GLN63       0.2592
     70  O         28.6670    8.0390   22.5290 O.2    63  GLN63      -0.2718
     71  CB        29.3020   10.0100   25.1580 C.3    63  GLN63       0.0381
     72  CG        28.6120   10.8660   26.2140 C.3    63  GLN63       0.0905
     73  CD        29.3730   12.1440   26.4780 C.2    63  GLN63       0.2608
     74  OE1       29.9060   12.7510   25.5510 O.2    63  GLN63      -0.2717
     75  NE2       29.4220   12.5690   27.7410 N.am   63  GLN63      -0.0878
     76  N         30.4600    7.5420   23.7890 N.am   64  MET64      -0.1979
     77  CA        31.1680    6.9290   22.6750 C.3    64  MET64       0.1605
     78  C         30.4980    5.6300   22.2350 C.2    64  MET64       0.2287
     79  O         30.4240    5.3260   21.0430 O.2    64  MET64      -0.2864
     80  CB        32.6280    6.6530   23.0510 C.3    64  MET64       0.0413
     81  CG        33.4180    7.8940   23.4420 C.3    64  MET64       0.0598
     82  SD        35.2030    7.5780   23.5780 S.3    64  MET64      -0.1393
     83  CE        35.2400    6.4150   24.9180 C.3    64  MET64       0.0692
     84  N         27.1530    6.0800   20.0710 N.3    67  ILE67      -0.1231
     85  CA        27.4400    6.5770   18.7230 C.3    67  ILE67       0.1692
     86  C         27.9060    5.4170   17.8510 C.2    67  ILE67       0.2591
     87  O         27.4480    5.2470   16.7190 O.2    67  ILE67      -0.2718
     88  CB        28.5350    7.6610   18.7310 C.3    67  ILE67       0.0266
     89  CG1       28.0180    8.9090   19.4520 C.3    67  ILE67       0.0019
     90  CG2       28.9470    8.0040   17.2930 C.3    67  ILE67       0.0020
     91  CD1       29.0730    9.9840   19.6540 C.3    67  ILE67       0.0001
     92  N         28.8160    4.6110   18.3910 N.am   68  GLN68      -0.1979
     93  CA        29.3390    3.4590   17.6590 C.3    68  GLN68       0.1601
     94  C         28.2890    2.3840   17.3550 C.2    68  GLN68       0.2287
     95  O         28.3480    1.7370   16.3100 O.2    68  GLN68      -0.2864
     96  CB        30.4990    2.8440   18.4360 C.3    68  GLN68       0.0394
     97  CG        31.7750    3.6820   18.3510 C.3    68  GLN68       0.0908
     98  CD        32.8520    3.1990   19.2990 C.2    68  GLN68       0.2608
     99  OE1       32.7390    3.3530   20.5190 O.2    68  GLN68      -0.2717
    100  NE2       33.8990    2.6120   18.7500 N.am   68  GLN68      -0.0878
    101  N         40.3400    3.5680    8.4770 N.3   217  GLU217     -0.1231
    102  CA        40.7780    3.3170    9.8490 C.3   217  GLU217      0.1699
    103  C         39.6790    3.0300   10.8810 C.2   217  GLU217      0.2592
    104  O         39.5560    1.9040   11.3720 O.2   217  GLU217     -0.2718
    105  CB        41.6210    4.5100   10.3260 C.3   217  GLU217      0.0402
    106  CG        42.2380    4.3430   11.7070 C.3   217  GLU217      0.1161
    107  CD        43.3310    3.2960   11.7290 C.2   217  GLU217      0.3649
    108  OE1       43.0440    2.1350   11.3630 O.co2 217  GLU217     -0.2457
    109  OE2       44.4760    3.6320   12.1130 O.co2 217  GLU217     -0.2457
    110  N         38.9030    4.0570   11.2190 N.am  218  MET218     -0.1979
    111  CA        37.8330    3.9460   12.2120 C.3   218  MET218      0.1605
    112  C         36.7770    2.8950   11.9100 C.2   218  MET218      0.2287
    113  O         36.2850    2.2220   12.8140 O.2   218  MET218     -0.2864
    114  CB        37.1300    5.2890   12.3870 C.3   218  MET218      0.0413
    115  CG        37.9840    6.3670   13.0010 C.3   218  MET218      0.0598
    116  SD        36.9900    7.8180   13.3430 S.3   218  MET218     -0.1393
    117  CE        36.8260    8.4990   11.6890 C.3   218  MET218      0.0692
    118  N         37.9720   -0.6130   12.6540 N.3   221  GLU221     -0.1231
    119  CA        38.0030   -0.7960   14.1000 C.3   221  GLU221      0.1699
    120  C         36.6040   -1.0220   14.6590 C.2   221  GLU221      0.2592
    121  O         36.3590   -2.0020   15.3590 O.2   221  GLU221     -0.2718
    122  CB        38.6240    0.4280   14.7750 C.3   221  GLU221      0.0402
    123  CG        38.4700    0.4420   16.2830 C.3   221  GLU221      0.1161
    124  CD        39.0020    1.7130   16.9030 C.2   221  GLU221      0.3649
    125  OE1       40.2260    1.9600   16.7930 O.co2 221  GLU221     -0.2457
    126  OE2       38.1990    2.4640   17.4960 O.co2 221  GLU221     -0.2457
    127  N         35.6910   -0.1060   14.3490 N.am  222  ILE222     -0.1980
    128  CA        34.3180   -0.2070   14.8260 C.3   222  ILE222      0.1595
    129  C         33.6330   -1.4940   14.3710 C.2   222  ILE222      0.2287
    130  O         32.9360   -2.1450   15.1460 O.2   222  ILE222     -0.2864
    131  CB        33.4790    0.9920   14.3470 C.3   222  ILE222      0.0276
    132  CG1       33.9790    2.2750   15.0260 C.3   222  ILE222      0.0022
    133  CG2       32.0120    0.7550   14.6470 C.3   222  ILE222      0.0022
    134  CD1       33.2420    3.5280   14.5840 C.3   222  ILE222      0.0001
@<TRIPOS>BOND
     1   101   102    1
     2     1     2    1
     3   102   105    1
     4   102   103    1
     5   105   106    1
     6    15    13    1
     7    13    14    1
     8    13    10    1
     9   103   110   am
    10   103   104    2
    11     2     5    1
    12     2     3    1
    13     9    10    1
    14     9     3   am
    15     5     6    1
    16   110   111    1
    17   108   107   ar
    18   117   116    1
    19    10    11    1
    20   106   107    1
    21     3     4    2
    22   107   109   ar
    23    31    30    1
    24   112   111    1
    25   112   113    2
    26    11    12    2
    27   111   114    1
    28   114   115    1
    29     8     6    1
    30     6     7    1
    31   118   119    1
    32    29    30    1
    33    29    28    1
    34   115   116    1
    35   119   120    1
    36   119   122    1
    37    28    27    1
    38   131   133    1
    39   131   128    1
    40   131   132    1
    41   127   120   am
    42   127   128    1
    43   129   128    1
    44   129   130    2
    45   134   132    1
    46    27    24    1
    47   120   121    2
    48   122   123    1
    49    16    17    1
    50    23    24    1
    51    23    18   am
    52    24    25    1
    53    22    20    1
    54    20    17    1
    55    20    21    1
    56    17    18    1
    57    25    26    2
    58   123   124    1
    59    95    94    2
    60    18    19    2
    61    87    86    2
    62   125   124   ar
    63   124   126   ar
    64    90    88    1
    65    94    93    1
    66    93    92    1
    67    93    96    1
    68    86    92   am
    69    86    85    1
    70    97    96    1
    71    97    98    1
    72    85    88    1
    73    85    84    1
    74    88    89    1
    75   100    98   am
    76    98    99    2
    77    89    91    1
    78    32    33    1
    79    38    37    1
    80    38    39    1
    81    36    37    1
    82    36    33    1
    83    33    34    1
    84    79    78    2
    85    34    35    2
    86    40    39    1
    87    78    77    1
    88    70    69    2
    89    77    80    1
    90    77    76    1
    91    51    49   ar
    92    51    50   ar
    93    49    47   ar
    94    80    81    1
    95    50    48   ar
    96    47    46   ar
    97    81    82    1
    98    82    83    1
    99    48    46   ar
   100    69    76   am
   101    69    68    1
   102    46    45    1
   103    45    42    1
   104    68    71    1
   105    68    67    1
   106    71    72    1
   107    74    73    2
   108    42    41    1
   109    42    43    1
   110    62    61    2
   111    72    73    1
   112    73    75   am
   113    55    54    2
   114    43    44    2
   115    61    60    1
   116    58    56    1
   117    54    59   am
   118    54    53    1
   119    60    59    1
   120    60    63    1
   121    65    64   ar
   122    53    56    1
   123    53    52    1
   124    56    57    1
   125    63    64    1
   126    64    66   ar
