@<TRIPOS>MOLECULE
tmp/1xp0A00.pdb
 187 176 0 0 0
SMALL
GASTEIGER

@<TRIPOS>ATOM
      1  N        -13.2530   33.8810   68.3010 N.3    79  TYR79      -0.1227
      2  CA       -14.4320   34.6340   67.8890 C.3    79  TYR79       0.1736
      3  C        -15.2650   35.2240   69.0330 C.2    79  TYR79       0.2595
      4  O        -15.6010   36.4040   68.9900 O.2    79  TYR79      -0.2718
      5  CB       -15.3120   33.7770   66.9720 C.3    79  TYR79       0.0548
      6  CG       -16.5720   34.4840   66.5600 C.ar   79  TYR79      -0.0200
      7  CD1      -17.8100   34.0260   66.9780 C.ar   79  TYR79      -0.0009
      8  CD2      -16.5200   35.6440   65.7870 C.ar   79  TYR79      -0.0009
      9  CE1      -18.9790   34.6870   66.6190 C.ar   79  TYR79       0.0417
     10  CE2      -17.6850   36.3070   65.4150 C.ar   79  TYR79       0.0417
     11  CZ       -18.9100   35.8160   65.8430 C.ar   79  TYR79       0.1957
     12  OH       -20.0870   36.4460   65.4970 O.3    79  TYR79      -0.2866
     13  N        -15.6230   34.4190   70.0250 N.am   80  HIS80      -0.1975
     14  CA       -16.4750   34.8750   71.1270 C.3    80  HIS80       0.1656
     15  C        -15.6360   35.6600   72.1480 C.2    80  HIS80       0.2291
     16  O        -15.3680   35.1900   73.2620 O.2    80  HIS80      -0.2864
     17  CB       -17.2120   33.6880   71.7700 C.3    80  HIS80       0.0771
     18  CG       -18.2090   33.0380   70.8650 C.ar   80  HIS80       0.0820
     19  ND1      -17.9060   31.9400   70.0830 N.ar   80  HIS80      -0.2267
     20  CD2      -19.5000   33.3560   70.5800 C.ar   80  HIS80       0.1154
     21  CE1      -18.9640   31.6150   69.3560 C.ar   80  HIS80       0.1986
     22  NE2      -19.9430   32.4600   69.6340 N.ar   80  HIS80      -0.2212
     23  N        -18.7320   24.7790   72.8160 N.3   128  SER128     -0.1217
     24  CA       -20.1870   24.7540   72.7990 C.3   128  SER128      0.1889
     25  C        -20.8010   24.2230   74.0950 C.2   128  SER128      0.2288
     26  O        -20.1120   23.6260   74.9460 O.2   128  SER128     -0.2866
     27  CB       -20.6600   23.8790   71.6260 C.3   128  SER128      0.2089
     28  OG       -20.3480   22.5150   71.8990 O.3   128  SER128     -0.2183
     29  N        -28.8780   29.6950   70.6370 N.3   193  LEU193     -0.1245
     30  CA       -29.5150   29.4190   69.3520 C.3   193  LEU193      0.1561
     31  C        -30.5920   28.3530   69.4500 C.2   193  LEU193      0.2260
     32  O        -31.5440   28.3890   68.6880 O.2   193  LEU193     -0.2867
     33  CB       -28.4920   29.0100   68.2950 C.3   193  LEU193      0.0270
     34  CG       -27.7800   30.1750   67.6300 C.3   193  LEU193      0.0019
     35  CD1      -26.6480   29.6480   66.7620 C.3   193  LEU193      0.0001
     36  CD2      -28.7530   31.0170   66.7940 C.3   193  LEU193      0.0001
     37  N        -34.3040   28.8860   67.8640 N.3   197  ILE197     -0.1245
     38  CA       -34.9390   27.9330   66.9590 C.3   197  ILE197      0.1561
     39  C        -36.2860   27.5010   67.5110 C.2   197  ILE197      0.2260
     40  O        -37.2640   27.3720   66.7720 O.2   197  ILE197     -0.2867
     41  CB       -33.9910   26.7430   66.6680 C.3   197  ILE197      0.0252
     42  CG1      -32.9170   27.2060   65.6820 C.3   197  ILE197      0.0019
     43  CG2      -34.7460   25.5760   66.0360 C.3   197  ILE197      0.0019
     44  CD1      -31.6860   26.3440   65.6570 C.3   197  ILE197      0.0001
     45  N        -26.6550   39.3670   67.3180 N.3   232  ASP232     -0.1225
     46  CA       -25.6500   38.3640   67.6450 C.3   232  ASP232      0.1805
     47  C        -25.0580   37.7700   66.3600 C.2   232  ASP232      0.2597
     48  O        -23.8500   37.5900   66.2490 O.2   232  ASP232     -0.2718
     49  CB       -26.3050   37.2590   68.5050 C.3   232  ASP232      0.1424
     50  CG       -25.3040   36.3360   69.2110 C.2   232  ASP232      0.3668
     51  OD1      -24.0900   36.6050   69.2350 O.co2 232  ASP232     -0.2456
     52  OD2      -25.7120   35.2590   69.7360 O.co2 232  ASP232     -0.2456
     53  N        -25.9100   37.4940   65.3700 N.am  233  LEU233     -0.1979
     54  CA       -25.4640   36.8630   64.1190 C.3   233  LEU233      0.1596
     55  C        -25.0740   37.8140   62.9980 C.2   233  LEU233      0.2287
     56  O        -24.7120   37.3630   61.9220 O.2   233  LEU233     -0.2864
     57  CB       -26.5830   35.9640   63.5900 C.3   233  LEU233      0.0297
     58  CG       -27.0680   34.8900   64.5710 C.3   233  LEU233      0.0022
     59  CD1      -28.1160   34.0280   63.9130 C.3   233  LEU233      0.0001
     60  CD2      -25.9310   34.0400   65.1020 C.3   233  LEU233      0.0001
     61  N        -22.6130   39.5030   61.8520 N.3   235  ALA235     -0.1231
     62  CA       -21.4030   39.3780   61.0250 C.3   235  ALA235      0.1694
     63  C        -21.7370   38.7400   59.6720 C.2   235  ALA235      0.2591
     64  O        -21.0850   39.0270   58.6760 O.2   235  ALA235     -0.2718
     65  CB       -20.3330   38.5680   61.7350 C.3   235  ALA235      0.0304
     66  N        -22.7620   37.8810   59.6430 N.am  236  ILE236     -0.1980
     67  CA       -23.2170   37.2300   58.4130 C.3   236  ILE236      0.1595
     68  C        -23.8130   38.2130   57.3830 C.2   236  ILE236      0.2287
     69  O        -24.0480   37.8510   56.2160 O.2   236  ILE236     -0.2864
     70  CB       -24.2380   36.1100   58.7650 C.3   236  ILE236      0.0276
     71  CG1      -24.2710   35.0460   57.6680 C.3   236  ILE236      0.0022
     72  CG2      -25.6360   36.6970   59.0020 C.3   236  ILE236      0.0022
     73  CD1      -22.9470   34.3190   57.5240 C.3   236  ILE236      0.0001
     74  N        -17.0540   39.8010   56.3940 N.3   243  GLN243     -0.1245
     75  CA       -17.6710   38.5060   56.6790 C.3   243  GLN243      0.1566
     76  C        -16.6830   37.3520   56.4460 C.2   243  GLN243      0.2260
     77  O        -16.6620   36.3880   57.2070 O.2   243  GLN243     -0.2867
     78  CB       -18.9700   38.3320   55.8570 C.3   243  GLN243      0.0367
     79  CG       -19.3420   36.9000   55.4540 C.3   243  GLN243      0.0905
     80  CD       -19.5950   35.9750   56.6190 C.2   243  GLN243      0.2608
     81  OE1      -19.5740   34.7620   56.4490 O.2   243  GLN243     -0.2717
     82  NE2      -19.8280   36.5330   57.8030 N.am  243  GLN243     -0.0878
     83  N        -14.3660   37.3380   59.5290 N.3   246  ILE246     -0.1231
     84  CA       -15.0350   36.8670   60.7330 C.3   246  ILE246      0.1692
     85  C        -15.3250   35.3770   60.6190 C.2   246  ILE246      0.2591
     86  O        -15.2010   34.6680   61.5980 O.2   246  ILE246     -0.2718
     87  CB       -16.3120   37.7070   61.0580 C.3   246  ILE246      0.0266
     88  CG1      -15.9070   39.0620   61.6420 C.3   246  ILE246      0.0019
     89  CG2      -17.1960   36.9860   62.0730 C.3   246  ILE246      0.0020
     90  CD1      -16.9030   40.1610   61.4350 C.3   246  ILE246      0.0001
     91  N        -15.6600   34.9000   59.4220 N.am  247  ALA247     -0.1980
     92  CA       -15.9250   33.4770   59.2110 C.3   247  ALA247      0.1597
     93  C        -14.6790   32.6400   59.5010 C.2   247  ALA247      0.2287
     94  O        -14.7930   31.5230   59.9700 O.2   247  ALA247     -0.2864
     95  CB       -16.4240   33.2070   57.8060 C.3   247  ALA247      0.0319
     96  N        -14.5810   32.2930   63.2190 N.3   250  VAL250     -0.1231
     97  CA       -15.5830   31.3170   63.6730 C.3   250  VAL250      0.1692
     98  C        -15.0650   29.8960   63.4440 C.2   250  VAL250      0.2591
     99  O        -15.1520   29.0460   64.3210 O.2   250  VAL250     -0.2718
    100  CB       -16.9480   31.5020   62.9400 C.3   250  VAL250      0.0266
    101  CG1      -17.9130   30.3720   63.2870 C.3   250  VAL250      0.0020
    102  CG2      -17.5770   32.8570   63.2860 C.3   250  VAL250      0.0020
    103  N        -14.5010   29.6520   62.2670 N.am  251  ALA251     -0.1980
    104  CA       -13.9560   28.3340   61.9340 C.3   251  ALA251      0.1597
    105  C        -12.7700   27.9760   62.8260 C.2   251  ALA251      0.2287
    106  O        -12.6090   26.8160   63.1900 O.2   251  ALA251     -0.2864
    107  CB       -13.5550   28.2750   60.4710 C.3   251  ALA251      0.0319
    108  N        -14.1050   26.8410   66.1440 N.3   254  PHE254     -0.1241
    109  CA       -14.6770   25.5040   65.9700 C.3   254  PHE254      0.1605
    110  C        -13.5910   24.4310   65.8660 C.2   254  PHE254      0.2264
    111  O        -13.6790   23.3980   66.5190 O.2   254  PHE254     -0.2867
    112  CB       -15.5410   25.4400   64.7040 C.3   254  PHE254      0.0534
    113  CG       -16.9040   26.1120   64.8210 C.ar  254  PHE254     -0.0203
    114  CD1      -17.4560   26.4790   66.0520 C.ar  254  PHE254     -0.0042
    115  CD2      -17.6380   26.3620   63.6720 C.ar  254  PHE254     -0.0042
    116  CE1      -18.7190   27.0770   66.1090 C.ar  254  PHE254     -0.0003
    117  CE2      -18.8890   26.9550   63.7420 C.ar  254  PHE254     -0.0003
    118  CZ       -19.4180   27.3200   64.9640 C.ar  254  PHE254     -0.0000
    119  N        -17.9540   20.2800   60.9740 N.3   272  LEU272     -0.1231
    120  CA       -17.7450   21.7010   61.2870 C.3   272  LEU272      0.1693
    121  C        -16.6340   21.9750   62.3070 C.2   272  LEU272      0.2591
    122  O        -16.0980   23.0800   62.3540 O.2   272  LEU272     -0.2718
    123  CB       -19.0550   22.3830   61.7130 C.3   272  LEU272      0.0284
    124  CG       -19.6130   22.1670   63.1210 C.3   272  LEU272      0.0019
    125  CD1      -19.9400   23.4910   63.7600 C.3   272  LEU272      0.0001
    126  CD2      -20.8500   21.2770   63.0850 C.3   272  LEU272      0.0001
    127  N        -16.2940   20.9730   63.1120 N.am  273  MET273     -0.1979
    128  CA       -15.2330   21.0980   64.1100 C.3   273  MET273      0.1605
    129  C        -13.9330   20.4250   63.6360 C.2   273  MET273      0.2287
    130  O        -12.9120   20.4760   64.3200 O.2   273  MET273     -0.2864
    131  CB       -15.7020   20.5080   65.4440 C.3   273  MET273      0.0413
    132  CG       -17.1330   20.9150   65.8330 C.3   273  MET273      0.0598
    133  SD       -17.2050   21.8800   67.3260 S.3   273  MET273     -0.1393
    134  CE       -18.8950   22.5070   67.3050 C.3   273  MET273      0.0692
    135  N        -16.3020   24.6210   54.2830 N.3   281  ILE281     -0.1245
    136  CA       -16.7920   25.8620   54.8900 C.3   281  ILE281      0.1561
    137  C        -17.8620   26.6000   54.0550 C.2   281  ILE281      0.2260
    138  O        -18.9080   26.9300   54.6010 O.2   281  ILE281     -0.2867
    139  CB       -15.6190   26.8000   55.3180 C.3   281  ILE281      0.0252
    140  CG1      -14.9590   26.2620   56.5940 C.3   281  ILE281      0.0019
    141  CG2      -16.1110   28.2220   55.5660 C.3   281  ILE281      0.0019
    142  CD1      -13.7510   27.0520   57.0610 C.3   281  ILE281      0.0001
    143  N        -21.2960   25.0060   54.2200 N.3   284  MET284     -0.1230
    144  CA       -21.8160   25.0860   55.5810 C.3   284  MET284      0.1702
    145  C        -22.3170   26.5050   55.8670 C.2   284  MET284      0.2592
    146  O        -23.2820   26.6810   56.6050 O.2   284  MET284     -0.2718
    147  CB       -20.7520   24.6910   56.6000 C.3   284  MET284      0.0401
    148  CG       -20.4560   23.2020   56.6010 C.3   284  MET284      0.0596
    149  SD       -19.3670   22.7140   57.9240 S.3   284  MET284     -0.1393
    150  CE       -17.9290   23.7240   57.6130 C.3   284  MET284      0.0692
    151  N        -21.6650   27.5050   55.2810 N.am  285  GLN285     -0.1979
    152  CA       -22.0940   28.8840   55.4430 C.3   285  GLN285      0.1601
    153  C        -23.4340   29.0880   54.7320 C.2   285  GLN285      0.2287
    154  O        -24.3070   29.7470   55.2650 O.2   285  GLN285     -0.2864
    155  CB       -21.0410   29.8730   54.9200 C.3   285  GLN285      0.0394
    156  CG       -19.8080   30.0020   55.8160 C.3   285  GLN285      0.0908
    157  CD       -20.1290   30.6000   57.1650 C.2   285  GLN285      0.2608
    158  OE1      -20.5390   29.8800   58.0810 O.2   285  GLN285     -0.2717
    159  NE2      -19.9590   31.9080   57.2950 N.am  285  GLN285     -0.0878
    160  N        -25.6560   26.7920   54.2510 N.3   287  GLY287     -0.1210
    161  CA       -26.5880   26.0870   55.1130 C.3   287  GLY287      0.1956
    162  C        -26.9920   26.9010   56.3340 C.2   287  GLY287      0.2611
    163  O        -28.1700   26.9210   56.6980 O.2   287  GLY287     -0.2717
    164  N        -26.0240   27.5910   56.9370 N.am  288  PHE288     -0.1976
    165  CA       -26.2560   28.4620   58.1050 C.3   288  PHE288      0.1639
    166  C        -27.1870   29.6290   57.7340 C.2   288  PHE288      0.2290
    167  O        -28.1510   29.9460   58.4380 O.2   288  PHE288     -0.2864
    168  CB       -24.9040   28.9790   58.6130 C.3   288  PHE288      0.0560
    169  CG       -24.9910   30.0650   59.6680 C.ar  288  PHE288     -0.0200
    170  CD1      -25.6270   29.8400   60.8700 C.ar  288  PHE288     -0.0042
    171  CD2      -24.3760   31.2920   59.4650 C.ar  288  PHE288     -0.0042
    172  CE1      -25.6700   30.8140   61.8450 C.ar  288  PHE288     -0.0003
    173  CE2      -24.4200   32.2800   60.4320 C.ar  288  PHE288     -0.0003
    174  CZ       -25.0660   32.0430   61.6280 C.ar  288  PHE288     -0.0000
    175  N        -30.8590   28.1350   56.9380 N.3   291  ALA291     -0.1231
    176  CA       -31.5790   27.5540   58.0610 C.3   291  ALA291      0.1694
    177  C        -31.7840   28.4740   59.2340 C.2   291  ALA291      0.2591
    178  O        -32.7830   28.3500   59.9320 O.2   291  ALA291     -0.2718
    179  CB       -30.8650   26.3080   58.5300 C.3   291  ALA291      0.0304
    180  N        -30.8480   29.3990   59.4570 N.am  292  ILE292     -0.1980
    181  CA       -30.8600   30.2250   60.6540 C.3   292  ILE292      0.1595
    182  C        -31.0480   31.7150   60.4200 C.2   292  ILE292      0.2287
    183  O        -31.8120   32.3590   61.1270 O.2   292  ILE292     -0.2864
    184  CB       -29.5090   30.0270   61.4200 C.3   292  ILE292      0.0276
    185  CG1      -29.2400   28.5480   61.7300 C.3   292  ILE292      0.0022
    186  CG2      -29.4720   30.8360   62.7050 C.3   292  ILE292      0.0022
    187  CD1      -30.2310   27.9180   62.6880 C.3   292  ILE292      0.0001
@<TRIPOS>BOND
     1   137   138    2
     2   137   136    1
     3   143   144    1
     4   160   161    1
     5   135   136    1
     6   153   154    2
     7   153   152    1
     8   136   139    1
     9   155   152    1
    10   155   156    1
    11   161   162    1
    12   151   152    1
    13   151   145   am
    14   139   141    1
    15   139   140    1
    16    79    78    1
    17    79    80    1
    18   144   145    1
    19   144   147    1
    20   156   157    1
    21    78    75    1
    22   145   146    2
    23    69    68    2
    24   162   163    2
    25   162   164   am
    26    74    75    1
    27    76    75    1
    28    76    77    2
    29    81    80    2
    30   140   142    1
    31   147   148    1
    32   148   149    1
    33    80    82   am
    34   164   165    1
    35   175   176    1
    36   157   159   am
    37   157   158    2
    38    68    67    1
    39    73    71    1
    40   150   149    1
    41    71    70    1
    42   166   165    1
    43   166   167    2
    44    95    92    1
    45   176   179    1
    46   176   177    1
    47   165   168    1
    48    67    70    1
    49    67    66    1
    50   168   169    1
    51    64    63    2
    52    70    72    1
    53    92    91    1
    54    92    93    1
    55   177   180   am
    56   177   178    2
    57    91    85   am
    58   180   181    1
    59   171   169   ar
    60   171   173   ar
    61    93    94    2
    62    83    84    1
    63    66    63   am
    64   169   170   ar
    65    63    62    1
    66   182   181    1
    67   182   183    2
    68   173   174   ar
    69   107   104    1
    70    85    84    1
    71    85    86    2
    72   181   184    1
    73    84    87    1
    74   170   172   ar
    75   119   120    1
    76    62    65    1
    77    62    61    1
    78    87    88    1
    79    87    89    1
    80   120   123    1
    81   120   121    1
    82   184   185    1
    83   184   186    1
    84    90    88    1
    85   174   172   ar
    86   123   124    1
    87   185   187    1
    88    56    55    2
    89   104   103    1
    90   104   105    1
    91   103    98   am
    92   121   122    2
    93   121   127   am
    94   105   106    2
    95   100   102    1
    96   100   101    1
    97   100    97    1
    98    55    54    1
    99   126   124    1
   100   127   128    1
   101   124   125    1
   102    96    97    1
   103    98    97    1
   104    98    99    2
   105    57    54    1
   106    57    58    1
   107   129   128    1
   108   129   130    2
   109   115   117   ar
   110   115   113   ar
   111   117   118   ar
   112    59    58    1
   113   128   131    1
   114    54    53    1
   115    58    60    1
   116   112   113    1
   117   112   109    1
   118   113   114   ar
   119   118   116   ar
   120    53    47   am
   121    10     8   ar
   122    10    11   ar
   123   131   132    1
   124    12    11    1
   125    44    42    1
   126    42    41    1
   127     8     6   ar
   128   132   133    1
   129    11     9   ar
   130   110   109    1
   131   110   111    2
   132   109   108    1
   133    43    41    1
   134   114   116   ar
   135    48    47    2
   136    47    46    1
   137     6     5    1
   138     6     7   ar
   139     9     7   ar
   140    41    38    1
   141    35    34    1
   142    40    39    2
   143    36    34    1
   144    38    39    1
   145    38    37    1
   146     5     2    1
   147   134   133    1
   148    45    46    1
   149    34    33    1
   150    46    49    1
   151     2     1    1
   152     2     3    1
   153    33    30    1
   154    49    50    1
   155    32    31    2
   156     4     3    2
   157     3    13   am
   158    50    51   ar
   159    50    52   ar
   160    30    31    1
   161    30    29    1
   162    21    22   ar
   163    21    19   ar
   164    22    20   ar
   165    13    14    1
   166    19    18   ar
   167    20    18   ar
   168    18    17    1
   169    14    17    1
   170    14    15    1
   171    27    28    1
   172    27    24    1
   173    15    16    2
   174    24    23    1
   175    24    25    1
   176    25    26    2
