@<TRIPOS>MOLECULE
tmp/1xp8A00.pdb
 145 135 0 0 0
SMALL
GASTEIGER

@<TRIPOS>ATOM
      1  N         13.3960   15.5910    8.1410 N.3    66  GLU66      -0.1231
      2  CA        14.6640   15.2030    7.5430 C.3    66  GLU66       0.1699
      3  C         14.7650   15.9760    6.2180 C.2    66  GLU66       0.2593
      4  O         13.7520   16.2590    5.5780 O.2    66  GLU66      -0.2718
      5  CB        14.7000   13.6890    7.2990 C.3    66  GLU66       0.0402
      6  CG        13.6250   13.1710    6.3460 C.3    66  GLU66       0.1161
      7  CD        13.7060   11.6570    6.1180 C.2    66  GLU66       0.3649
      8  OE1       13.3780   10.8800    7.0510 O.co2  66  GLU66      -0.2457
      9  OE2       14.1050   11.2460    5.0020 O.co2  66  GLU66      -0.2457
     10  N         15.9880   16.3200    5.8280 N.am   67  SER67      -0.1938
     11  CA        16.2590   17.0840    4.6110 C.3    67  SER67       0.2055
     12  C         15.8220   18.5380    4.7600 C.2    67  SER67       0.2644
     13  O         15.7950   19.2820    3.7850 O.2    67  SER67      -0.2714
     14  CB        15.5560   16.4580    3.3990 C.3    67  SER67       0.2130
     15  OG        15.9750   15.1170    3.2000 O.3    67  SER67      -0.2179
     16  N         15.4870   18.9350    5.9880 N.am   68  GLY68      -0.1939
     17  CA        15.0570   20.3020    6.2460 C.3    68  GLY68       0.2014
     18  C         16.1530   21.3610    6.3370 C.2    68  GLY68       0.2639
     19  O         15.9060   22.5280    6.0360 O.2    68  GLY68      -0.2714
     20  N         17.3560   20.9740    6.7580 N.am   69  GLY69      -0.1939
     21  CA        18.4390   21.9400    6.8700 C.3    69  GLY69       0.2014
     22  C         19.1370   21.9490    8.2220 C.2    69  GLY69       0.2639
     23  O         20.0960   22.6980    8.4370 O.2    69  GLY69      -0.2714
     24  N         18.6500   21.1150    9.1350 N.am   70  LYS70      -0.1963
     25  CA        19.2190   20.9970   10.4680 C.3    70  LYS70       0.1728
     26  C         20.7230   20.7290   10.4490 C.2    70  LYS70       0.2617
     27  O         21.5030   21.4800   11.0490 O.2    70  LYS70      -0.2715
     28  CB        18.5220   19.8730   11.2320 C.3    70  LYS70       0.0311
     29  CG        17.0140   20.0280   11.3270 C.3    70  LYS70       0.0038
     30  CD        16.4290   18.9780   12.2640 C.3    70  LYS70       0.0206
     31  CE        16.8700   17.5770   11.8670 C.3    70  LYS70       0.1093
     32  NZ        16.4920   17.2650   10.4700 N.3    70  LYS70      -0.1314
     33  N         21.1370   19.6630    9.7690 N.am   71  THR71      -0.1937
     34  CA        22.5560   19.3470    9.7140 C.3    71  THR71       0.2028
     35  C         23.3410   20.4720    9.0100 C.2    71  THR71       0.2642
     36  O         24.4380   20.8460    9.4420 O.2    71  THR71      -0.2714
     37  CB        22.8170   17.9610    9.0100 C.3    71  THR71       0.1808
     38  OG1       22.0670   16.9220    9.6620 O.3    71  THR71      -0.2208
     39  CG2       24.2940   17.5870    9.0990 C.3    71  THR71       0.0379
     40  N         22.7870   21.0160    7.9280 N.am   72  THR72      -0.1950
     41  CA        23.4620   22.0960    7.2190 C.3    72  THR72       0.1897
     42  C         23.6900   23.2190    8.2240 C.2    72  THR72       0.2313
     43  O         24.8160   23.6490    8.4350 O.2    72  THR72      -0.2863
     44  CB        22.6090   22.6350    6.0300 C.3    72  THR72       0.1794
     45  OG1       22.4470   21.6080    5.0460 O.3    72  THR72      -0.2208
     46  CG2       23.2840   23.8170    5.3790 C.3    72  THR72       0.0378
     47  N         24.2270    8.8190   14.0430 N.3    94  GLU94      -0.1245
     48  CA        23.4480    8.7080   12.8210 C.3    94  GLU94       0.1567
     49  C         24.2400    8.0260   11.7010 C.2    94  GLU94       0.2260
     50  O         23.6810    7.2480   10.9340 O.2    94  GLU94      -0.2867
     51  CB        23.0150   10.1060   12.3720 C.3    94  GLU94       0.0388
     52  CG        21.5850   10.2120   11.8490 C.3    94  GLU94       0.1160
     53  CD        20.5280   10.0230   12.9350 C.2    94  GLU94       0.3649
     54  OE1       20.2180    8.8640   13.3010 O.co2  94  GLU94      -0.2457
     55  OE2       20.0100   11.0480   13.4270 O.co2  94  GLU94      -0.2457
     56  N         25.8340    9.5870    9.1010 N.3    96  ALA96      -0.1245
     57  CA        25.5480   10.1340    7.7780 C.3    96  ALA96       0.1562
     58  C         26.3910   11.3440    7.3410 C.2    96  ALA96       0.2260
     59  O         26.1800   11.8870    6.2560 O.2    96  ALA96      -0.2867
     60  CB        24.0490   10.4660    7.6750 C.3    96  ALA96       0.0290
     61  N         28.7150   13.7970    5.6400 N.3    98  ASP98      -0.1239
     62  CA        29.4300   13.8990    4.3660 C.3    98  ASP98       0.1674
     63  C         30.4900   14.9780    4.5300 C.2    98  ASP98       0.2266
     64  O         30.1760   16.1590    4.5300 O.2    98  ASP98      -0.2867
     65  CB        28.4750   14.2880    3.2320 C.3    98  ASP98       0.1410
     66  CG        29.1970   14.5150    1.8970 C.2    98  ASP98       0.3668
     67  OD1       28.5030   14.7190    0.8710 O.co2  98  ASP98      -0.2456
     68  OD2       30.4530   14.4970    1.8730 O.co2  98  ASP98      -0.2456
     69  N         30.8050   17.6600    1.6800 N.3   101  TYR101     -0.1241
     70  CA        29.8020   18.7020    1.8590 C.3   101  TYR101      0.1605
     71  C         30.1770   19.5880    3.0580 C.2   101  TYR101      0.2264
     72  O         30.0630   20.8090    3.0000 O.2   101  TYR101     -0.2867
     73  CB        28.4380   18.0640    2.0940 C.3   101  TYR101      0.0534
     74  CG        27.2970   19.0400    2.2750 C.ar  101  TYR101     -0.0201
     75  CD1       27.0980   20.0950    1.3750 C.ar  101  TYR101     -0.0009
     76  CD2       26.3720   18.8750    3.3140 C.ar  101  TYR101     -0.0009
     77  CE1       26.0040   20.9550    1.5060 C.ar  101  TYR101      0.0417
     78  CE2       25.2710   19.7300    3.4530 C.ar  101  TYR101      0.0417
     79  CZ        25.0950   20.7660    2.5480 C.ar  101  TYR101      0.1957
     80  OH        24.0230   21.6180    2.6850 O.3   101  TYR101     -0.2866
     81  N         24.2960   14.3680   16.9940 N.3   142  ASP142     -0.1239
     82  CA        23.4190   13.9280   15.9230 C.3   142  ASP142      0.1674
     83  C         23.1160   12.4390   15.9900 C.2   142  ASP142      0.2266
     84  O         23.9820   11.6230   15.7110 O.2   142  ASP142     -0.2867
     85  CB        24.0340   14.2910   14.5680 C.3   142  ASP142      0.1410
     86  CG        23.0220   14.2240   13.4370 C.2   142  ASP142      0.3668
     87  OD1       21.8370   14.5340   13.6930 O.co2 142  ASP142     -0.2456
     88  OD2       23.4050   13.8720   12.2940 O.co2 142  ASP142     -0.2456
     89  N         15.2270   15.0330   14.7980 N.3   184  GLN184     -0.1245
     90  CA        14.3970   14.7090   13.6300 C.3   184  GLN184      0.1566
     91  C         12.9650   14.5630   14.1390 C.2   184  GLN184      0.2260
     92  O         12.7160   13.7740   15.0460 O.2   184  GLN184     -0.2867
     93  CB        14.8210   13.3740   12.9990 C.3   184  GLN184      0.0367
     94  CG        16.3230   13.1140   12.9630 C.3   184  GLN184      0.0905
     95  CD        17.0630   13.9540   11.9280 C.2   184  GLN184      0.2608
     96  OE1       18.3000   13.9480   11.8780 O.2   184  GLN184     -0.2717
     97  NE2       16.3110   14.6730   11.0900 N.am  184  GLN184     -0.0878
     98  N         11.7350   22.9010    5.0960 N.3   202  LYS202     -0.1245
     99  CA        11.6260   23.4620    3.7520 C.3   202  LYS202      0.1561
    100  C         10.2070   23.9320    3.4580 C.2   202  LYS202      0.2260
    101  O          9.2340   23.3450    3.9360 O.2   202  LYS202     -0.2867
    102  CB        12.0320   22.4290    2.6990 C.3   202  LYS202      0.0271
    103  CG        13.5290   22.2940    2.5090 C.3   202  LYS202      0.0035
    104  CD        13.8780   21.1060    1.6140 C.3   202  LYS202      0.0206
    105  CE        15.3920   20.9370    1.4980 C.3   202  LYS202      0.1093
    106  NZ        15.7670   19.6770    0.7910 N.3   202  LYS202     -0.1314
    107  N         17.6110   22.1510   -7.1700 N.3   208  VAL208     -0.1245
    108  CA        18.9640   22.6220   -6.8900 C.3   208  VAL208      0.1561
    109  C         18.9810   23.4980   -5.6280 C.2   208  VAL208      0.2260
    110  O         19.8430   23.3360   -4.7650 O.2   208  VAL208     -0.2867
    111  CB        19.5350   23.4190   -8.0980 C.3   208  VAL208      0.0252
    112  CG1       18.6350   24.6020   -8.4150 C.3   208  VAL208      0.0019
    113  CG2       20.9590   23.8800   -7.8050 C.3   208  VAL208      0.0019
    114  N         16.4180   25.2510   -2.4560 N.3   210  ASN210     -0.1240
    115  CA        15.1360   25.1960   -1.7610 C.3   210  ASN210      0.1653
    116  C         15.0990   26.2770   -0.6960 C.2   210  ASN210      0.2266
    117  O         16.1370   26.7310   -0.2280 O.2   210  ASN210     -0.2867
    118  CB        14.9650   23.8300   -1.0880 C.3   210  ASN210      0.1155
    119  CG        13.6880   23.1250   -1.4990 C.2   210  ASN210      0.2627
    120  OD1       12.5870   23.6680   -1.3620 O.2   210  ASN210     -0.2716
    121  ND2       13.8300   21.8990   -1.9990 N.am  210  ASN210     -0.0877
    122  N         18.5580   27.4710    0.5950 N.3   232  LEU232     -0.1245
    123  CA        19.4630   26.3420    0.7500 C.3   232  LEU232      0.1561
    124  C         19.6570   25.6670   -0.5990 C.2   232  LEU232      0.2260
    125  O         18.7690   24.9930   -1.1200 O.2   232  LEU232     -0.2867
    126  CB        18.9030   25.3570    1.7810 C.3   232  LEU232      0.0270
    127  CG        19.5920   23.9960    1.9730 C.3   232  LEU232      0.0019
    128  CD1       21.0920   24.1160    1.7930 C.3   232  LEU232      0.0001
    129  CD2       19.2520   23.4600    3.3690 C.3   232  LEU232      0.0001
    130  N         21.6280   23.0030   -3.0210 N.3   234  TYR234     -0.1227
    131  CA        22.3360   21.7370   -3.0020 C.3   234  TYR234      0.1736
    132  C         23.8580   21.8580   -3.1000 C.2   234  TYR234      0.2596
    133  O         24.3920   22.5770   -3.9510 O.2   234  TYR234     -0.2718
    134  CB        21.8300   20.8580   -4.1450 C.3   234  TYR234      0.0548
    135  CG        22.3440   19.4440   -4.0770 C.ar  234  TYR234     -0.0200
    136  CD1       21.7290   18.4990   -3.2500 C.ar  234  TYR234     -0.0009
    137  CD2       23.4810   19.0620   -4.7930 C.ar  234  TYR234     -0.0009
    138  CE1       22.2350   17.2100   -3.1340 C.ar  234  TYR234      0.0417
    139  CE2       23.9980   17.7770   -4.6830 C.ar  234  TYR234      0.0417
    140  CZ        23.3730   16.8550   -3.8520 C.ar  234  TYR234      0.1957
    141  OH        23.9010   15.5870   -3.7200 O.3   234  TYR234     -0.2866
    142  N         24.5490   21.1350   -2.2250 N.am  235  GLY235     -0.1957
    143  CA        25.9970   21.1430   -2.2260 C.3   235  GLY235      0.1869
    144  C         26.6450   22.4260   -1.7520 C.2   235  GLY235      0.2309
    145  O         27.8330   22.4300   -1.4490 O.2   235  GLY235     -0.2863
@<TRIPOS>BOND
     1   112   111    1
     2   111   113    1
     3   111   108    1
     4   107   108    1
     5   108   109    1
     6   109   110    2
     7   137   139   ar
     8   137   135   ar
     9   139   140   ar
    10   134   135    1
    11   134   131    1
    12   135   136   ar
    13   133   132    2
    14   140   141    1
    15   140   138   ar
    16   136   138   ar
    17   132   131    1
    18   132   142   am
    19   130   131    1
    20   114   115    1
    21   143   142    1
    22   143   144    1
    23   121   119   am
    24   115   118    1
    25   115   116    1
    26   144   145    2
    27   119   120    2
    28   119   118    1
    29   125   124    2
    30   116   117    2
    31   124   123    1
    32   122   123    1
    33   123   126    1
    34   106   105    1
    35    67    66   ar
    36    75    77   ar
    37    75    74   ar
    38   105   104    1
    39    77    79   ar
    40   104   103    1
    41    69    70    1
    42   126   127    1
    43   128   127    1
    44    70    73    1
    45    70    71    1
    46    68    66   ar
    47    66    65    1
    48   127   129    1
    49    73    74    1
    50    74    76   ar
    51   103   102    1
    52    79    80    1
    53    79    78   ar
    54   102    99    1
    55    72    71    2
    56    15    14    1
    57    65    62    1
    58    76    78   ar
    59    14    11    1
    60   100    99    1
    61   100   101    2
    62    99    98    1
    63    13    12    2
    64    62    63    1
    65    62    61    1
    66    64    63    2
    67    11    12    1
    68    11    10    1
    69    12    16   am
    70     9     7   ar
    71    45    44    1
    72    46    44    1
    73     4     3    2
    74    10     3   am
    75    16    17    1
    76    44    41    1
    77    19    18    2
    78     7     6    1
    79     7     8   ar
    80     3     2    1
    81    17    18    1
    82    59    58    2
    83    18    20   am
    84     6     5    1
    85    20    21    1
    86    21    22    1
    87    41    40    1
    88    41    42    1
    89     5     2    1
    90    58    57    1
    91     2     1    1
    92    60    57    1
    93    57    56    1
    94    40    35   am
    95    22    23    2
    96    22    24   am
    97    42    43    2
    98    37    39    1
    99    37    38    1
   100    37    34    1
   101    35    36    2
   102    35    34    1
   103    24    25    1
   104    34    33    1
   105    33    26   am
   106    26    25    1
   107    26    27    2
   108    25    28    1
   109    32    31    1
   110    50    49    2
   111    97    95   am
   112    28    29    1
   113    29    30    1
   114    49    48    1
   115    52    51    1
   116    52    53    1
   117    31    30    1
   118    96    95    2
   119    95    94    1
   120    88    86   ar
   121    51    48    1
   122    48    47    1
   123    53    54   ar
   124    53    55   ar
   125    94    93    1
   126    93    90    1
   127    86    87   ar
   128    86    85    1
   129    90    91    1
   130    90    89    1
   131    91    92    2
   132    85    82    1
   133    84    83    2
   134    82    83    1
   135    82    81    1
