@<TRIPOS>MOLECULE
tmp/1xpcA00.pdb
 217 205 0 0 0
SMALL
GASTEIGER

@<TRIPOS>ATOM
      1  N         35.7490   -7.7450   31.4320 N.3    37  MET37      -0.1245
      2  CA        35.7190   -7.1340   30.0850 C.3    37  MET37       0.1570
      3  C         35.1830   -8.0780   29.0210 C.2    37  MET37       0.2261
      4  O         34.6020   -7.5570   28.0480 O.2    37  MET37      -0.2867
      5  CB        37.0960   -6.6110   29.6780 C.3    37  MET37       0.0387
      6  CG        37.1250   -5.7800   28.4190 C.3    37  MET37       0.0595
      7  SD        36.0800   -4.3100   28.4360 S.3    37  MET37      -0.1393
      8  CE        36.3810   -3.6950   30.0820 C.3    37  MET37       0.0692
      9  N         31.3450   -7.7860   29.4120 N.3    40  LEU40      -0.1231
     10  CA        30.9130   -6.4940   28.8600 C.3    40  LEU40       0.1693
     11  C         31.0450   -6.4620   27.3440 C.2    40  LEU40       0.2592
     12  O         30.1490   -6.0080   26.6180 O.2    40  LEU40      -0.2718
     13  CB        31.6920   -5.3250   29.4840 C.3    40  LEU40       0.0284
     14  CG        31.5320   -5.2090   31.0190 C.3    40  LEU40       0.0019
     15  CD1       32.3050   -4.0400   31.6100 C.3    40  LEU40       0.0001
     16  CD2       30.0540   -5.0820   31.3820 C.3    40  LEU40       0.0001
     17  N         32.1700   -6.9550   26.8060 N.am   41  THR41      -0.1953
     18  CA        32.3190   -6.8930   25.3370 C.3    41  THR41       0.1897
     19  C         31.3070   -7.7450   24.6110 C.2    41  THR41       0.2313
     20  O         30.7630   -7.3720   23.5710 O.2    41  THR41      -0.2863
     21  CB        33.7520   -7.3310   24.9850 C.3    41  THR41       0.1794
     22  OG1       34.6140   -6.3550   25.5860 O.3    41  THR41      -0.2208
     23  CG2       34.0520   -7.3180   23.5080 C.3    41  THR41       0.0378
     24  N         28.2600   -8.5850   25.6420 N.3    43  LEU43      -0.1231
     25  CA        27.0130   -7.8540   25.7750 C.3    43  LEU43       0.1693
     26  C         26.9340   -6.7570   24.7240 C.2    43  LEU43       0.2592
     27  O         25.9480   -6.7040   23.9710 O.2    43  LEU43      -0.2718
     28  CB        26.8820   -7.2150   27.1640 C.3    43  LEU43       0.0284
     29  CG        25.5310   -6.5220   27.3690 C.3    43  LEU43       0.0019
     30  CD1       24.3880   -7.5000   27.1580 C.3    43  LEU43       0.0001
     31  CD2       25.4320   -5.8850   28.7440 C.3    43  LEU43       0.0001
     32  N         27.9740   -5.9230   24.6630 N.am   44  ALA44      -0.1966
     33  CA        27.9990   -4.8180   23.6910 C.3    44  ALA44       0.1728
     34  C         27.9040   -5.2760   22.2410 C.2    44  ALA44       0.2616
     35  O         27.1910   -4.7040   21.4010 O.2    44  ALA44      -0.2715
     36  CB        29.2720   -4.0070   23.9150 C.3    44  ALA44       0.0334
     37  N         28.6230   -6.3480   21.8940 N.am   45  ASP45      -0.1971
     38  CA        28.5250   -6.8880   20.5280 C.3    45  ASP45       0.1709
     39  C         27.1040   -7.3310   20.1950 C.2    45  ASP45       0.2293
     40  O         26.5100   -7.1720   19.1310 O.2    45  ASP45      -0.2864
     41  CB        29.5160   -8.0320   20.4170 C.3    45  ASP45       0.1436
     42  CG        30.9720   -7.6230   20.3280 C.2    45  ASP45       0.3671
     43  OD1       31.2500   -6.4380   20.0510 O.co2  45  ASP45      -0.2456
     44  OD2       31.8230   -8.5220   20.5420 O.co2  45  ASP45      -0.2456
     45  N         24.3160   -6.1800   21.5370 N.3    47  GLU47      -0.1231
     46  CA        23.4240   -5.0150   21.4870 C.3    47  GLU47       0.1699
     47  C         23.5120   -4.3100   20.1510 C.2    47  GLU47       0.2592
     48  O         22.5440   -3.7170   19.6490 O.2    47  GLU47      -0.2718
     49  CB        23.7960   -4.0560   22.6100 C.3    47  GLU47       0.0402
     50  CG        23.0900   -4.4470   23.9340 C.3    47  GLU47       0.1161
     51  CD        23.2930   -3.2850   24.8820 C.2    47  GLU47       0.3649
     52  OE1       22.4800   -2.3400   24.9020 O.co2  47  GLU47      -0.2457
     53  OE2       24.3070   -3.2940   25.5920 O.co2  47  GLU47      -0.2457
     54  N         24.7070   -4.3790   19.5830 N.am   48  LEU48      -0.1980
     55  CA        24.9560   -3.6770   18.3220 C.3    48  LEU48       0.1596
     56  C         24.0390   -4.1710   17.2240 C.2    48  LEU48       0.2287
     57  O         23.5540   -3.4440   16.3540 O.2    48  LEU48      -0.2864
     58  CB        26.4470   -3.8340   17.9170 C.3    48  LEU48       0.0297
     59  CG        26.7920   -3.0780   16.6340 C.3    48  LEU48       0.0022
     60  CD1       26.7460   -1.5700   16.8330 C.3    48  LEU48       0.0001
     61  CD2       28.1630   -3.4900   16.0930 C.3    48  LEU48       0.0001
     62  N         27.8240    4.7150   17.7030 N.3    77  TRP77      -0.1227
     63  CA        27.4000    3.4800   18.3940 C.3    77  TRP77       0.1737
     64  C         27.7580    3.4860   19.8630 C.2    77  TRP77       0.2595
     65  O         26.9380    2.9970   20.6470 O.2    77  TRP77      -0.2718
     66  CB        27.9800    2.2600   17.6650 C.3    77  TRP77       0.0564
     67  CG        29.4580    2.1350   17.8390 C.ar   77  TRP77       0.0003
     68  CD1       30.4090    2.6550   17.0350 C.ar   77  TRP77       0.0946
     69  CD2       30.1600    1.4650   18.8650 C.ar   77  TRP77       0.0152
     70  NE1       31.6730    2.3580   17.4790 N.ar   77  TRP77      -0.2442
     71  CE2       31.5360    1.6170   18.6180 C.ar   77  TRP77       0.0810
     72  CE3       29.6980    0.7410   19.9740 C.ar   77  TRP77       0.0012
     73  CZ2       32.5080    1.0690   19.4440 C.ar   77  TRP77       0.0191
     74  CZ3       30.6770    0.2030   20.7940 C.ar   77  TRP77       0.0001
     75  CH2       32.0420    0.3720   20.5250 C.ar   77  TRP77       0.0015
     76  N         28.9290    4.0190   20.2560 N.am   78  LEU78      -0.1980
     77  CA        29.2120    3.9320   21.7000 C.3    78  LEU78       0.1596
     78  C         28.3930    4.9320   22.5150 C.2    78  LEU78       0.2287
     79  O         27.9460    4.6240   23.6430 O.2    78  LEU78      -0.2864
     80  CB        30.7190    4.0240   21.9420 C.3    78  LEU78       0.0297
     81  CG        31.1610    3.8330   23.4020 C.3    78  LEU78       0.0022
     82  CD1       30.7460    2.4740   23.9400 C.3    78  LEU78       0.0001
     83  CD2       32.6720    4.0280   23.5410 C.3    78  LEU78       0.0001
     84  N         25.0530    3.0610   22.9310 N.3    81  LEU81      -0.1231
     85  CA        25.1080    2.0970   24.0480 C.3    81  LEU81       0.1693
     86  C         25.1200    2.8050   25.3950 C.2    81  LEU81       0.2591
     87  O         24.4140    2.4260   26.3320 O.2    81  LEU81      -0.2718
     88  CB        26.3930    1.2750   23.9590 C.3    81  LEU81       0.0284
     89  CG        26.4350    0.2560   22.8090 C.3    81  LEU81       0.0019
     90  CD1       27.7430   -0.5220   22.8560 C.3    81  LEU81       0.0001
     91  CD2       25.2130   -0.6410   22.8260 C.3    81  LEU81       0.0001
     92  N         25.9620    3.8310   25.5420 N.am   82  MET82      -0.1979
     93  CA        26.1200    4.4370   26.8670 C.3    82  MET82       0.1605
     94  C         24.8480    5.1480   27.3080 C.2    82  MET82       0.2287
     95  O         24.4940    4.9880   28.4800 O.2    82  MET82      -0.2864
     96  CB        27.2960    5.4090   26.8500 C.3    82  MET82       0.0413
     97  CG        28.6470    4.6940   26.8090 C.3    82  MET82       0.0598
     98  SD        29.9550    5.9430   26.7420 S.3    82  MET82      -0.1393
     99  CE        31.3920    4.9600   27.2380 C.3    82  MET82       0.0692
    100  N         22.6660    2.5890   28.6080 N.3    85  LEU85      -0.1245
    101  CA        23.0860    2.0780   29.9160 C.3    85  LEU85       0.1561
    102  C         22.7120    2.9980   31.0660 C.2    85  LEU85       0.2260
    103  O         22.2680    2.6150   32.1470 O.2    85  LEU85      -0.2867
    104  CB        24.6100    1.9220   29.9220 C.3    85  LEU85       0.0270
    105  CG        25.2350    1.5050   31.2550 C.3    85  LEU85       0.0019
    106  CD1       24.7110    0.1660   31.7200 C.3    85  LEU85       0.0001
    107  CD2       26.7590    1.4840   31.0940 C.3    85  LEU85       0.0001
    108  N         18.8980    2.7790   31.7400 N.3    88  ARG88      -0.1245
    109  CA        18.3600    1.6740   32.5440 C.3    88  ARG88       0.1563
    110  C         19.0220    1.6170   33.9270 C.2    88  ARG88       0.2260
    111  O         18.5740    0.8540   34.8030 O.2    88  ARG88      -0.2867
    112  CB        18.4580    0.3770   31.7700 C.3    88  ARG88       0.0307
    113  CG        19.7640   -0.0300   31.1800 C.3    88  ARG88       0.0489
    114  CD        19.7380   -1.4350   30.5620 C.3    88  ARG88       0.2205
    115  NE        21.1040   -1.7770   30.1630 N.pl3  88  ARG88      -0.0865
    116  CZ        21.7180   -1.4130   29.0510 C.cat  88  ARG88       0.5346
    117  NH1       21.1500   -0.6670   28.1030 N.pl3  88  ARG88       0.1354
    118  NH2       22.9660   -1.8140   28.8600 N.pl3  88  ARG88       0.1354
    119  N         24.1910   -2.9920   33.5640 N.3    98  PHE98      -0.1241
    120  CA        24.6130   -3.4240   32.2280 C.3    98  PHE98       0.1605
    121  C         23.5840   -4.3990   31.6600 C.2    98  PHE98       0.2264
    122  O         23.2310   -4.3260   30.4930 O.2    98  PHE98      -0.2867
    123  CB        26.0040   -4.0560   32.2500 C.3    98  PHE98       0.0534
    124  CG        27.1000   -3.0390   32.5050 C.ar   98  PHE98      -0.0203
    125  CD1       27.6610   -2.3420   31.4540 C.ar   98  PHE98      -0.0042
    126  CD2       27.5630   -2.7660   33.7690 C.ar   98  PHE98      -0.0042
    127  CE1       28.6400   -1.3920   31.6730 C.ar   98  PHE98      -0.0003
    128  CE2       28.5480   -1.8360   34.0070 C.ar   98  PHE98      -0.0003
    129  CZ        29.1000   -1.1370   32.9510 C.ar   98  PHE98      -0.0000
    130  N         39.1620    1.4450   34.1010 N.3   115  MET115     -0.1245
    131  CA        37.7210    1.4200   33.8460 C.3   115  MET115      0.1570
    132  C         36.9480    2.2060   34.8910 C.2   115  MET115      0.2261
    133  O         35.8860    2.7630   34.6060 O.2   115  MET115     -0.2867
    134  CB        37.2160   -0.0260   33.7360 C.3   115  MET115      0.0387
    135  CG        35.8360   -0.1040   33.0980 C.3   115  MET115      0.0595
    136  SD        35.3660   -1.7430   32.5350 S.3   115  MET115     -0.1393
    137  CE        35.3170   -2.6800   34.0600 C.3   115  MET115      0.0692
    138  N         35.7240    5.5760   33.7050 N.3   118  ILE118     -0.1231
    139  CA        34.5360    5.5550   32.8490 C.3   118  ILE118      0.1692
    140  C         33.2670    5.2650   33.6440 C.2   118  ILE118      0.2592
    141  O         32.2260    5.9100   33.4330 O.2   118  ILE118     -0.2718
    142  CB        34.6970    4.5080   31.7260 C.3   118  ILE118      0.0266
    143  CG1       36.0340    4.5250   30.9860 C.3   118  ILE118      0.0019
    144  CG2       33.5300    4.6020   30.7530 C.3   118  ILE118      0.0020
    145  CD1       36.3570    5.7040   30.1070 C.3   118  ILE118      0.0001
    146  N         33.3130    4.2980   34.5620 N.am  119  PHE119     -0.1976
    147  CA        32.1890    3.9610   35.4210 C.3   119  PHE119      0.1639
    148  C         31.7250    5.2250   36.1390 C.2   119  PHE119      0.2290
    149  O         30.5470    5.5600   36.2050 O.2   119  PHE119     -0.2864
    150  CB        32.5640    2.8920   36.4490 C.3   119  PHE119      0.0560
    151  CG        32.3220    1.4480   36.0500 C.ar  119  PHE119     -0.0200
    152  CD1       31.8740    0.5260   36.9730 C.ar  119  PHE119     -0.0042
    153  CD2       32.5390    0.9990   34.7580 C.ar  119  PHE119     -0.0042
    154  CE1       31.6550   -0.7900   36.6350 C.ar  119  PHE119     -0.0003
    155  CE2       32.3320   -0.3150   34.3790 C.ar  119  PHE119     -0.0003
    156  CZ        31.8890   -1.2220   35.3430 C.ar  119  PHE119     -0.0000
    157  N         29.7420    7.4620   33.8940 N.3   122  LEU122     -0.1245
    158  CA        28.4010    6.9200   33.5940 C.3   122  LEU122      0.1561
    159  C         27.4700    7.0930   34.7860 C.2   122  LEU122      0.2260
    160  O         26.3010    7.4750   34.6950 O.2   122  LEU122     -0.2867
    161  CB        28.5190    5.4510   33.1870 C.3   122  LEU122      0.0270
    162  CG        29.2350    5.2020   31.8540 C.3   122  LEU122      0.0019
    163  CD1       29.7700    3.7750   31.8060 C.3   122  LEU122      0.0001
    164  CD2       28.3130    5.5170   30.6760 C.3   122  LEU122      0.0001
    165  N         35.8520    6.5490   26.3180 N.3   215  GLY215     -0.1225
    166  CA        35.7440    5.0840   26.3100 C.3   215  GLY215      0.1811
    167  C         36.3880    4.4820   25.0680 C.2   215  GLY215      0.2280
    168  O         36.9520    3.3900   25.0820 O.2   215  GLY215     -0.2866
    169  N         39.9710    4.3220   25.9390 N.3   218  HIS218     -0.1226
    170  CA        40.2430    3.2560   26.8950 C.3   218  HIS218      0.1752
    171  C         40.1300    1.9060   26.2100 C.2   218  HIS218      0.2595
    172  O         40.9450    0.9950   26.3760 O.2   218  HIS218     -0.2718
    173  CB        39.2720    3.3790   28.0760 C.3   218  HIS218      0.0759
    174  CG        39.4620    2.2950   29.1010 C.ar  218  HIS218      0.0818
    175  ND1       38.5350    1.3210   29.3590 N.ar  218  HIS218     -0.2268
    176  CD2       40.4830    2.0120   29.9300 C.ar  218  HIS218      0.1154
    177  CE1       38.9410    0.4900   30.2900 C.ar  218  HIS218      0.1986
    178  NE2       40.1460    0.8990   30.6640 N.ar  218  HIS218     -0.2212
    179  N         39.0830    1.7540   25.3920 N.am  219  LEU219     -0.1980
    180  CA        38.9140    0.4720   24.7160 C.3   219  LEU219      0.1596
    181  C         40.1100    0.1760   23.8260 C.2   219  LEU219      0.2287
    182  O         40.5570   -0.9720   23.8430 O.2   219  LEU219     -0.2864
    183  CB        37.6670    0.4020   23.8620 C.3   219  LEU219      0.0297
    184  CG        36.3410    0.3210   24.6160 C.3   219  LEU219      0.0022
    185  CD1       35.1910    0.4070   23.6240 C.3   219  LEU219      0.0001
    186  CD2       36.2630   -0.9480   25.4530 C.3   219  LEU219      0.0001
    187  N         39.2980   -6.3320   23.4050 N.3   224  CYS224     -0.1221
    188  CA        37.9480   -6.1050   22.9590 C.3   224  CYS224      0.1808
    189  C         37.5990   -6.6240   21.5650 C.2   224  CYS224      0.2601
    190  O         36.8800   -7.6310   21.4950 O.2   224  CYS224     -0.2717
    191  CB        37.6220   -4.5950   22.9950 C.3   224  CYS224      0.0970
    192  SG        36.0310   -4.3770   23.8370 S.3   224  CYS224     -0.0800
    193  N         38.0620   -5.9630   20.5170 N.am  225  LYS225     -0.1979
    194  CA        37.8960   -6.3670   19.1310 C.3   225  LYS225      0.1596
    195  C         38.1830   -5.2180   18.1610 C.2   225  LYS225      0.2287
    196  O         37.8740   -4.0620   18.4300 O.2   225  LYS225     -0.2864
    197  CB        36.4930   -6.9040   18.8260 C.3   225  LYS225      0.0298
    198  CG        36.4520   -7.9050   17.6760 C.3   225  LYS225      0.0038
    199  CD        35.3490   -7.5620   16.6890 C.3   225  LYS225      0.0206
    200  CE        35.1180   -8.6920   15.6940 C.3   225  LYS225      0.1093
    201  NZ        33.6910   -9.1400   15.6610 N.3   225  LYS225     -0.1314
    202  N         35.2290   -1.8000   11.8110 N.3   230  LEU230     -0.1245
    203  CA        33.8390   -1.5960   12.1570 C.3   230  LEU230      0.1561
    204  C         32.9920   -1.2700   10.9290 C.2   230  LEU230      0.2260
    205  O         31.8920   -1.8080   10.8160 O.2   230  LEU230     -0.2867
    206  CB        33.6720   -0.4890   13.2160 C.3   230  LEU230      0.0270
    207  CG        32.2510   -0.4680   13.7920 C.3   230  LEU230      0.0019
    208  CD1       31.7570   -1.9050   13.9200 C.3   230  LEU230      0.0001
    209  CD2       32.1730    0.2430   15.1310 C.3   230  LEU230      0.0001
    210  N         31.6620   -4.2730    9.1110 N.3   233  LEU233     -0.1245
    211  CA        30.7180   -5.0870    9.8700 C.3   233  LEU233      0.1561
    212  C         29.3420   -4.4200    9.8590 C.2   233  LEU233      0.2260
    213  O         28.2830   -5.0140    9.6540 O.2   233  LEU233     -0.2867
    214  CB        31.2010   -5.3400   11.3090 C.3   233  LEU233      0.0270
    215  CG        30.1710   -5.9870   12.2370 C.3   233  LEU233      0.0019
    216  CD1       29.8550   -7.4010   11.7520 C.3   233  LEU233      0.0001
    217  CD2       30.5730   -6.0110   13.7120 C.3   233  LEU233      0.0001
@<TRIPOS>BOND
     1   210   211    1
     2   213   212    2
     3   212   211    1
     4   211   214    1
     5   205   204    2
     6   204   203    1
     7   214   215    1
     8   216   215    1
     9   202   203    1
    10   203   206    1
    11   215   217    1
    12   206   207    1
    13   207   208    1
    14   207   209    1
    15   201   200    1
    16   200   199    1
    17    61    59    1
    18    57    56    2
    19    59    60    1
    20    59    58    1
    21   199   198    1
    22    68    70   ar
    23    68    67   ar
    24    56    55    1
    25    70    71   ar
    26    66    67    1
    27    66    63    1
    28   198   197    1
    29    62    63    1
    30    67    69   ar
    31    58    55    1
    32   195   196    2
    33   195   194    1
    34    55    54    1
    35    63    64    1
    36    71    69   ar
    37    71    73   ar
    38   197   194    1
    39    69    72   ar
    40   194   193    1
    41    40    39    2
    42    73    75   ar
    43    54    47   am
    44    48    47    2
    45    64    76   am
    46    64    65    2
    47    72    74   ar
    48    43    42   ar
    49    47    46    1
    50    39    38    1
    51    76    77    1
    52    42    41    1
    53    42    44   ar
    54    41    38    1
    55   193   189   am
    56    75    74   ar
    57    38    37    1
    58    35    34    2
    59    46    45    1
    60    46    49    1
    61   190   189    2
    62   189   188    1
    63    77    80    1
    64    77    78    1
    65    37    34   am
    66    80    81    1
    67    34    33    1
    68    78    79    2
    69    49    50    1
    70    89    91    1
    71    89    90    1
    72    89    88    1
    73    84    85    1
    74   188   191    1
    75   188   187    1
    76   191   192    1
    77    81    83    1
    78    81    82    1
    79    23    21    1
    80    20    19    2
    81   185   184    1
    82    33    36    1
    83    33    32    1
    84   181   182    2
    85   181   180    1
    86   183   184    1
    87   183   180    1
    88    50    51    1
    89    88    85    1
    90    27    26    2
    91    85    86    1
    92    19    18    1
    93   184   186    1
    94    32    26   am
    95   180   179    1
    96    26    25    1
    97    51    52   ar
    98    51    53   ar
    99    21    18    1
   100    21    22    1
   101   167   168    2
   102   167   166    1
   103    18    17    1
   104   179   171   am
   105    86    92   am
   106    86    87    2
   107    92    93    1
   108    24    25    1
   109    25    28    1
   110   169   170    1
   111   171   172    2
   112   171   170    1
   113   166   165    1
   114    12    11    2
   115    98    97    1
   116    98    99    1
   117    17    11   am
   118    97    96    1
   119    96    93    1
   120    93    94    1
   121   170   173    1
   122    30    29    1
   123    28    29    1
   124    94    95    2
   125    11    10    1
   126    29    31    1
   127     4     3    2
   128   173   174    1
   129   117   116    1
   130     6     7    1
   131     6     5    1
   132     7     8    1
   133   100   101    1
   134    10     9    1
   135    10    13    1
   136   118   116    1
   137     3     2    1
   138   116   115    2
   139   174   175   ar
   140   174   176   ar
   141   175   177   ar
   142    13    14    1
   143     5     2    1
   144   101   104    1
   145   101   102    1
   146   104   105    1
   147   176   178   ar
   148     2     1    1
   149   145   143    1
   150   115   114    1
   151   177   178   ar
   152   122   121    2
   153   114   113    1
   154   164   162    1
   155   144   142    1
   156   143   142    1
   157    14    16    1
   158    14    15    1
   159   102   103    2
   160   107   105    1
   161   113   112    1
   162   105   106    1
   163   125   127   ar
   164   125   124   ar
   165   121   120    1
   166   127   129   ar
   167   142   139    1
   168   108   109    1
   169   112   109    1
   170   163   162    1
   171   162   161    1
   172   120   123    1
   173   120   119    1
   174   123   124    1
   175   124   126   ar
   176   136   135    1
   177   136   137    1
   178   109   110    1
   179   139   140    1
   180   139   138    1
   181   129   128   ar
   182   135   134    1
   183   161   158    1
   184   141   140    2
   185   158   157    1
   186   158   159    1
   187   140   146   am
   188   134   131    1
   189   126   128   ar
   190   131   130    1
   191   131   132    1
   192   110   111    2
   193   155   153   ar
   194   155   156   ar
   195   146   147    1
   196   133   132    2
   197   160   159    2
   198   153   151   ar
   199   156   154   ar
   200   147   148    1
   201   147   150    1
   202   151   150    1
   203   151   152   ar
   204   148   149    2
   205   154   152   ar
