@<TRIPOS>MOLECULE
tmp/1xpgA00.pdb
 192 185 0 0 0
SMALL
GASTEIGER

@<TRIPOS>ATOM
      1  N        116.1850   79.0750   28.8230 N.3    16  ARG16      -0.1245
      2  CA       116.3660   77.6480   28.6100 C.3    16  ARG16       0.1563
      3  C        116.1440   77.2690   27.1530 C.2    16  ARG16       0.2260
      4  O        115.6260   76.1950   26.8640 O.2    16  ARG16      -0.2867
      5  CB       115.4110   76.8430   29.4910 C.3    16  ARG16       0.0307
      6  CG       115.9570   76.4940   30.8660 C.3    16  ARG16       0.0489
      7  CD       115.3110   77.3250   31.9480 C.3    16  ARG16       0.2205
      8  NE       113.9010   76.9950   32.1580 N.pl3  16  ARG16      -0.0865
      9  CZ       113.4640   75.8630   32.7070 C.cat  16  ARG16       0.5346
     10  NH1      112.1660   75.6610   32.8560 N.pl3  16  ARG16       0.1354
     11  NH2      114.3200   74.9340   33.1120 N.pl3  16  ARG16       0.1354
     12  N        117.3630   73.9450   26.4120 N.3    19  LYS19      -0.1245
     13  CA       116.5210   72.8730   26.9050 C.3    19  LYS19       0.1561
     14  C        115.3690   72.6080   25.9270 C.2    19  LYS19       0.2260
     15  O        115.0900   71.4600   25.5830 O.2    19  LYS19      -0.2867
     16  CB       115.9650   73.2520   28.2820 C.3    19  LYS19       0.0271
     17  CG       114.9760   72.2590   28.8440 C.3    19  LYS19       0.0035
     18  CD       114.2730   72.8150   30.0690 C.3    19  LYS19       0.0206
     19  CE       113.2590   71.8220   30.6090 C.3    19  LYS19       0.1093
     20  NZ       113.9130   70.5080   30.8490 N.3    19  LYS19      -0.1314
     21  N        128.8350   62.0900   38.6540 N.3    99  LYS99      -0.1245
     22  CA       129.1930   63.4370   39.0790 C.3    99  LYS99       0.1561
     23  C        130.5340   63.8960   38.5170 C.2    99  LYS99       0.2260
     24  O        131.4920   63.1260   38.4640 O.2    99  LYS99      -0.2867
     25  CB       129.2480   63.4940   40.6090 C.3    99  LYS99       0.0271
     26  CG       128.2830   64.4690   41.2400 C.3    99  LYS99       0.0035
     27  CD       126.8360   64.1120   40.9250 C.3    99  LYS99       0.0206
     28  CE       125.8760   64.9390   41.7780 C.3    99  LYS99       0.1093
     29  NZ       126.1010   64.7160   43.2400 N.3    99  LYS99      -0.1314
     30  N        127.7220   69.7570   40.9810 N.3   104  ASN104     -0.1240
     31  CA       126.3890   69.2470   40.7220 C.3   104  ASN104      0.1653
     32  C        126.1230   69.0190   39.2420 C.2   104  ASN104      0.2266
     33  O        124.9910   68.7830   38.8340 O.2   104  ASN104     -0.2867
     34  CB       125.3360   70.1710   41.3460 C.3   104  ASN104      0.1155
     35  CG       125.3790   70.1380   42.8770 C.2   104  ASN104      0.2627
     36  OD1      125.4400   69.0630   43.4890 O.2   104  ASN104     -0.2716
     37  ND2      125.3490   71.3150   43.5000 N.am  104  ASN104     -0.0877
     38  N        126.7860   66.7240   35.8050 N.3   106  HIS106     -0.1241
     39  CA       127.0620   65.3140   35.5700 C.3   106  HIS106      0.1621
     40  C        127.6100   65.1100   34.1720 C.2   106  HIS106      0.2264
     41  O        127.1300   65.7270   33.2240 O.2   106  HIS106     -0.2867
     42  CB       125.7870   64.4790   35.7400 C.3   106  HIS106      0.0745
     43  CG       125.1130   64.6620   37.0620 C.ar  106  HIS106      0.0817
     44  ND1      124.5000   65.8420   37.4280 N.ar  106  HIS106     -0.2268
     45  CD2      124.9710   63.8230   38.1130 C.ar  106  HIS106      0.1154
     46  CE1      124.0110   65.7230   38.6500 C.ar  106  HIS106      0.1986
     47  NE2      124.2840   64.5070   39.0890 N.ar  106  HIS106     -0.2212
     48  N         99.6490   69.9020   40.3330 N.3   414  ARG414     -0.1245
     49  CA       100.6700   70.7510   40.9390 C.3   414  ARG414      0.1563
     50  C        100.8410   71.9930   40.0690 C.2   414  ARG414      0.2260
     51  O        101.0660   73.0950   40.5730 O.2   414  ARG414     -0.2867
     52  CB       101.9930   69.9960   41.0510 C.3   414  ARG414      0.0307
     53  CG       102.9880   70.8850   41.8510 C.3   414  ARG414      0.0489
     54  CD       104.1740   70.0620   42.3160 C.3   414  ARG414      0.2205
     55  NE       104.8690   69.5390   41.1460 N.pl3 414  ARG414     -0.0865
     56  CZ       104.7780   68.3120   40.6570 C.cat 414  ARG414      0.5346
     57  NH1      104.0610   67.3590   41.2730 N.pl3 414  ARG414      0.1354
     58  NH2      105.3270   68.0170   39.4800 N.pl3 414  ARG414      0.1354
     59  N        100.3140   75.7150   41.2520 N.3   418  ARG418     -0.1245
     60  CA       101.4320   76.6420   41.0950 C.3   418  ARG418      0.1563
     61  C        101.0040   77.9020   40.3320 C.2   418  ARG418      0.2260
     62  O        101.4150   79.0150   40.6660 O.2   418  ARG418     -0.2867
     63  CB       102.5910   75.9470   40.3630 C.3   418  ARG418      0.0307
     64  CG       103.8640   76.7580   40.2810 C.3   418  ARG418      0.0489
     65  CD       104.8380   76.1070   39.3130 C.3   418  ARG418      0.2205
     66  NE       105.1200   74.7210   39.6810 N.pl3 418  ARG418     -0.0865
     67  CZ       105.2350   73.7150   38.8160 C.cat 418  ARG418      0.5346
     68  NH1      105.0970   73.9220   37.5090 N.pl3 418  ARG418      0.1354
     69  NH2      105.4940   72.4930   39.2600 N.pl3 418  ARG418      0.1354
     70  N        108.5260   67.9310   44.9520 N.3   458  THR458     -0.1203
     71  CA       109.1150   67.8460   43.6180 C.3   458  THR458      0.1994
     72  C        110.5990   67.5110   43.7340 C.2   458  THR458      0.2617
     73  O        111.1240   66.6700   43.0070 O.2   458  THR458     -0.2717
     74  CB       108.9860   69.1800   42.8570 C.3   458  THR458      0.1784
     75  OG1      109.5900   70.2280   43.6270 O.3   458  THR458     -0.2211
     76  CG2      107.5250   69.5140   42.6070 C.3   458  THR458      0.0376
     77  N        111.2690   68.1850   44.6560 N.am  459  ASP459     -0.1973
     78  CA       112.6910   67.9810   44.8880 C.3   459  ASP459      0.1709
     79  C        112.8860   67.7760   46.3910 C.2   459  ASP459      0.2293
     80  O        112.2380   68.4400   47.1980 O.2   459  ASP459     -0.2864
     81  CB       113.4620   69.2100   44.3850 C.3   459  ASP459      0.1436
     82  CG       114.9310   69.1440   44.7040 C.2   459  ASP459      0.3671
     83  OD1      115.3430   69.7250   45.7280 O.co2 459  ASP459     -0.2456
     84  OD2      115.6740   68.5020   43.9380 O.co2 459  ASP459     -0.2456
     85  N        118.2310   79.0600   36.8820 N.3   477  TRP477     -0.1241
     86  CA       118.4470   77.6990   36.4120 C.3   477  TRP477      0.1605
     87  C        119.9160   77.3500   36.1460 C.2   477  TRP477      0.2264
     88  O        120.6590   78.1120   35.5280 O.2   477  TRP477     -0.2867
     89  CB       117.6260   77.4460   35.1430 C.3   477  TRP477      0.0550
     90  CG       116.1350   77.5380   35.3450 C.ar  477  TRP477      0.0003
     91  CD1      115.3310   78.5890   35.0200 C.ar  477  TRP477      0.0946
     92  CD2      115.2750   76.5350   35.9100 C.ar  477  TRP477      0.0152
     93  NE1      114.0250   78.3070   35.3430 N.ar  477  TRP477     -0.2442
     94  CE2      113.9620   77.0540   35.8920 C.ar  477  TRP477      0.0810
     95  CE3      115.4880   75.2480   36.4320 C.ar  477  TRP477      0.0012
     96  CZ2      112.8580   76.3310   36.3750 C.ar  477  TRP477      0.0191
     97  CZ3      114.3890   74.5260   36.9160 C.ar  477  TRP477      0.0001
     98  CH2      113.0890   75.0760   36.8810 C.ar  477  TRP477      0.0015
     99  N        122.0190   70.6400   35.1310 N.3   480  SER480     -0.1202
    100  CA       122.3640   69.4980   35.9540 C.3   480  SER480      0.2020
    101  C        123.0380   68.4690   35.0480 C.2   480  SER480      0.2618
    102  O        124.0890   67.9200   35.3810 O.2   480  SER480     -0.2717
    103  CB       121.1050   68.9220   36.5960 C.3   480  SER480      0.2103
    104  OG       121.4420   67.9630   37.5770 O.3   480  SER480     -0.2182
    105  N        122.4210   68.2240   33.8960 N.am  481  TYR481     -0.1975
    106  CA       122.9370   67.2950   32.8870 C.3   481  TYR481      0.1639
    107  C        121.9590   67.2480   31.7180 C.2   481  TYR481      0.2290
    108  O        120.7840   67.5750   31.8770 O.2   481  TYR481     -0.2864
    109  CB       123.1020   65.8880   33.4690 C.3   481  TYR481      0.0560
    110  CG       121.8020   65.2040   33.8250 C.ar  481  TYR481     -0.0198
    111  CD1      121.0030   64.6160   32.8420 C.ar  481  TYR481     -0.0009
    112  CD2      121.3660   65.1450   35.1500 C.ar  481  TYR481     -0.0009
    113  CE1      119.8050   63.9820   33.1730 C.ar  481  TYR481      0.0417
    114  CE2      120.1710   64.5190   35.4900 C.ar  481  TYR481      0.0417
    115  CZ       119.3960   63.9410   34.5010 C.ar  481  TYR481      0.1957
    116  OH       118.2090   63.3300   34.8490 O.3   481  TYR481     -0.2866
    117  N        118.3080   68.6220   31.6450 N.3   484  ARG484     -0.1231
    118  CA       117.7530   68.8120   32.9810 C.3   484  ARG484      0.1694
    119  C        118.4030   69.9610   33.7320 C.2   484  ARG484      0.2592
    120  O        119.6230   70.0260   33.8750 O.2   484  ARG484     -0.2718
    121  CB       117.8950   67.5320   33.7940 C.3   484  ARG484      0.0321
    122  CG       117.2240   66.3310   33.1670 C.3   484  ARG484      0.0489
    123  CD       115.7570   66.6090   32.8940 C.3   484  ARG484      0.2205
    124  NE       114.9690   65.3820   32.9040 N.pl3 484  ARG484     -0.0865
    125  CZ       113.6500   65.3330   32.7430 C.cat 484  ARG484      0.5346
    126  NH1      112.9520   66.4500   32.5510 N.pl3 484  ARG484      0.1354
    127  NH2      113.0290   64.1620   32.7860 N.pl3 484  ARG484      0.1354
    128  N        117.5720   70.8670   34.2270 N.am  485  CYS485     -0.1956
    129  CA       118.0630   72.0170   34.9550 C.3   485  CYS485      0.1843
    130  C        117.5120   72.0570   36.3680 C.2   485  CYS485      0.2625
    131  O        116.3940   71.6120   36.6370 O.2   485  CYS485     -0.2714
    132  CB       117.6990   73.2920   34.2020 C.3   485  CYS485      0.0997
    133  SG       118.5410   73.4360   32.5970 S.3   485  CYS485     -0.0797
    134  N        118.3190   72.5910   37.2710 N.am  486  TYR486     -0.1960
    135  CA       117.9560   72.7000   38.6680 C.3   486  TYR486      0.1771
    136  C        118.0380   74.1750   39.0370 C.2   486  TYR486      0.2619
    137  O        118.8310   74.9270   38.4660 O.2   486  TYR486     -0.2715
    138  CB       118.9400   71.8760   39.5050 C.3   486  TYR486      0.0574
    139  CG       118.5770   71.7170   40.9590 C.ar  486  TYR486     -0.0198
    140  CD1      119.2200   72.4620   41.9420 C.ar  486  TYR486     -0.0009
    141  CD2      117.6060   70.7940   41.3600 C.ar  486  TYR486     -0.0009
    142  CE1      118.9110   72.2910   43.2940 C.ar  486  TYR486      0.0417
    143  CE2      117.2880   70.6140   42.7050 C.ar  486  TYR486      0.0417
    144  CZ       117.9460   71.3660   43.6700 C.ar  486  TYR486      0.1957
    145  OH       117.6440   71.1960   45.0100 O.3   486  TYR486     -0.2866
    146  N        117.2120   74.5910   39.9830 N.am  487  ARG487     -0.1977
    147  CA       117.2080   75.9750   40.4250 C.3   487  ARG487      0.1597
    148  C        117.6280   75.9530   41.8870 C.2   487  ARG487      0.2287
    149  O        116.7920   75.9830   42.7870 O.2   487  ARG487     -0.2864
    150  CB       115.8060   76.5510   40.2640 C.3   487  ARG487      0.0334
    151  CG       115.7160   78.0440   40.4170 C.3   487  ARG487      0.0492
    152  CD       114.4390   78.5300   39.7690 C.3   487  ARG487      0.2205
    153  NE       113.2990   77.7120   40.1630 N.pl3 487  ARG487     -0.0865
    154  CZ       112.1340   77.7120   39.5290 C.cat 487  ARG487      0.5346
    155  NH1      111.1460   76.9350   39.9540 N.pl3 487  ARG487      0.1354
    156  NH2      111.9630   78.4860   38.4620 N.pl3 487  ARG487      0.1354
    157  N        123.1410   71.2910   47.6800 N.3   527  TRP527     -0.1241
    158  CA       122.4190   71.5220   46.4410 C.3   527  TRP527      0.1605
    159  C        122.1540   72.9910   46.1840 C.2   527  TRP527      0.2264
    160  O        121.7150   73.3600   45.1010 O.2   527  TRP527     -0.2867
    161  CB       121.0950   70.7630   46.4570 C.3   527  TRP527      0.0550
    162  CG       121.2380   69.2880   46.3970 C.ar  527  TRP527      0.0003
    163  CD1      122.3600   68.5540   46.6710 C.ar  527  TRP527      0.0946
    164  CD2      120.2070   68.3460   46.0890 C.ar  527  TRP527      0.0152
    165  NE1      122.0880   67.2110   46.5540 N.ar  527  TRP527     -0.2442
    166  CE2      120.7740   67.0550   46.2000 C.ar  527  TRP527      0.0810
    167  CE3      118.8540   68.4660   45.7330 C.ar  527  TRP527      0.0012
    168  CZ2      120.0340   65.8900   45.9710 C.ar  527  TRP527      0.0191
    169  CZ3      118.1180   67.3080   45.5040 C.ar  527  TRP527      0.0001
    170  CH2      118.7120   66.0350   45.6250 C.ar  527  TRP527      0.0015
    171  N        122.1300   62.1780   50.8650 N.3   567  PRO567     -0.2116
    172  CA       122.9860   61.7950   49.7390 C.3   567  PRO567      0.1372
    173  C        124.2930   62.5760   49.6210 C.2   567  PRO567      0.2244
    174  O        125.2550   62.0920   49.0300 O.2   567  PRO567     -0.2868
    175  CB       122.0730   61.9830   48.5320 C.3   567  PRO567      0.0268
    176  CG       121.0820   63.0000   49.0020 C.3   567  PRO567      0.0207
    177  CD       120.7890   62.5530   50.3920 C.3   567  PRO567      0.0892
    178  N        128.9000   62.7590   48.6380 N.3   571  GLU571     -0.1245
    179  CA       129.0590   63.6280   47.4690 C.3   571  GLU571      0.1567
    180  C        129.6720   64.9920   47.7360 C.2   571  GLU571      0.2260
    181  O        130.3520   65.5400   46.8720 O.2   571  GLU571     -0.2867
    182  CB       127.7230   63.8260   46.7570 C.3   571  GLU571      0.0388
    183  CG       127.1600   62.5630   46.1430 C.3   571  GLU571      0.1160
    184  CD       125.8000   62.7880   45.5140 C.2   571  GLU571      0.3649
    185  OE1      125.1980   61.7980   45.0400 O.co2 571  GLU571     -0.2457
    186  OE2      125.3330   63.9550   45.4980 O.co2 571  GLU571     -0.2457
    187  N        122.4940   56.0910   48.6170 N.3   607  CYS607     -0.1235
    188  CA       122.4580   55.6110   47.2320 C.3   607  CYS607      0.1677
    189  C        123.7740   55.0180   46.6850 C.2   607  CYS607      0.2270
    190  O        123.7660   54.3410   45.6540 O.2   607  CYS607     -0.2867
    191  CB       122.0070   56.7430   46.2920 C.3   607  CYS607      0.0956
    192  SG       120.3480   57.4710   46.5710 S.3   607  CYS607     -0.0801
@<TRIPOS>BOND
     1    15    14    2
     2    14    13    1
     3    12    13    1
     4     4     3    2
     5    13    16    1
     6     3     2    1
     7    16    17    1
     8     2     1    1
     9     2     5    1
    10    17    18    1
    11     5     6    1
    12    18    19    1
    13    19    20    1
    14     6     7    1
    15   117   118    1
    16   107   108    2
    17   107   106    1
    18     7     8    1
    19     8     9    2
    20   126   125    1
    21   133   132    1
    22     9    10    1
    23     9    11    1
    24   125   127    1
    25   125   124    2
    26   111   113   ar
    27   111   110   ar
    28   106   109    1
    29   106   105    1
    30   123   124    1
    31   123   122    1
    32   118   119    1
    33   118   121    1
    34   122   121    1
    35   113   115   ar
    36    41    40    2
    37   109   110    1
    38   119   120    2
    39   119   128   am
    40   110   112   ar
    41   105   101   am
    42    40    39    1
    43   132   129    1
    44   128   129    1
    45   115   116    1
    46   115   114   ar
    47   129   130    1
    48    91    93   ar
    49    91    90   ar
    50   101   102    2
    51   101   100    1
    52    99   100    1
    53    89    90    1
    54    89    86    1
    55   112   114   ar
    56    93    94   ar
    57    90    92   ar
    58    88    87    2
    59    39    42    1
    60    39    38    1
    61    42    43    1
    62    94    92   ar
    63    94    96   ar
    64    92    95   ar
    65   100   103    1
    66    87    86    1
    67   130   131    2
    68   130   134   am
    69    96    98   ar
    70    86    85    1
    71    95    97   ar
    72   103   104    1
    73    98    97   ar
    74    43    44   ar
    75    43    45   ar
    76   134   135    1
    77    44    46   ar
    78    68    67    1
    79    45    47   ar
    80   156   154    1
    81    24    23    2
    82   137   136    2
    83    23    22    1
    84    46    47   ar
    85    21    22    1
    86   135   136    1
    87   135   138    1
    88    67    69    1
    89    67    66    2
    90    33    32    2
    91   136   146   am
    92    22    25    1
    93    32    31    1
    94    65    66    1
    95    65    64    1
    96    58    56    1
    97   138   139    1
    98   154   155    1
    99   154   153    2
   100   152   153    1
   101   152   151    1
   102   146   147    1
   103    50    51    2
   104    50    49    1
   105   150   151    1
   106   150   147    1
   107    64    63    1
   108    61    62    2
   109    61    60    1
   110    48    49    1
   111    63    60    1
   112   147   148    1
   113    25    26    1
   114    56    55    2
   115    56    57    1
   116    31    30    1
   117    31    34    1
   118    27    26    1
   119    27    28    1
   120    49    52    1
   121   139   141   ar
   122   139   140   ar
   123    52    53    1
   124    60    59    1
   125    55    54    1
   126    34    35    1
   127   141   143   ar
   128    28    29    1
   129    53    54    1
   130   148   149    2
   131   140   142   ar
   132    76    74    1
   133   143   144   ar
   134    74    71    1
   135    74    75    1
   136    35    36    2
   137    35    37   am
   138    73    72    2
   139   142   144   ar
   140    71    72    1
   141    71    70    1
   142   144   145    1
   143    72    77   am
   144    84    82   ar
   145    81    82    1
   146    81    78    1
   147    77    78    1
   148    82    83   ar
   149    78    79    1
   150   185   184   ar
   151   160   159    2
   152   186   184   ar
   153   169   170   ar
   154   169   167   ar
   155   184   183    1
   156   170   168   ar
   157   190   189    2
   158   167   164   ar
   159   168   166   ar
   160   164   166   ar
   161   164   162   ar
   162   183   182    1
   163   159   158    1
   164   166   165   ar
   165   191   192    1
   166   191   188    1
   167    79    80    2
   168   162   161    1
   169   162   163   ar
   170   158   161    1
   171   158   157    1
   172   165   163   ar
   173   189   188    1
   174   182   179    1
   175   181   180    2
   176   188   187    1
   177   179   180    1
   178   179   178    1
   179   175   176    1
   180   175   172    1
   181   176   177    1
   182   174   173    2
   183   173   172    1
   184   172   171    1
   185   177   171    1
