@<TRIPOS>MOLECULE
tmp/1xpoI02.pdb
 108 102 0 0 0
SMALL
GASTEIGER

@<TRIPOS>ATOM
      1  N          3.2780   17.1060   45.5910 N.3   174  PRO174     -0.2102
      2  CA         1.8670   17.3890   45.3190 C.3   174  PRO174      0.1504
      3  C          1.0490   17.5480   46.6020 C.2   174  PRO174      0.2575
      4  O          1.3350   16.8830   47.6030 O.2   174  PRO174     -0.2718
      5  CB         1.4030   16.1500   44.5460 C.3   174  PRO174      0.0282
      6  CG         2.3860   15.0900   44.8910 C.3   174  PRO174      0.0208
      7  CD         3.6900   15.8000   45.0450 C.3   174  PRO174      0.0893
      8  N          0.0500   18.4300   46.5580 N.am  175  LYS175     -0.1980
      9  CA        -0.8370   18.7130   47.6970 C.3   175  LYS175      0.1596
     10  C         -0.1080   19.3260   48.9010 C.2   175  LYS175      0.2287
     11  O         -0.4980   19.1030   50.0510 O.2   175  LYS175     -0.2864
     12  CB        -1.6210   17.4580   48.1170 C.3   175  LYS175      0.0298
     13  CG        -2.7550   17.0720   47.1820 C.3   175  LYS175      0.0038
     14  CD        -3.4540   15.8070   47.6650 C.3   175  LYS175      0.0206
     15  CE        -4.8140   15.6250   47.0030 C.3   175  LYS175      0.1093
     16  NZ        -4.7090   15.1710   45.5890 N.3   175  LYS175     -0.1314
     17  N          1.8660   24.3890   46.3960 N.3   178  LYS178     -0.1231
     18  CA         2.4320   24.9510   45.1610 C.3   178  LYS178      0.1693
     19  C          1.5500   25.9730   44.4360 C.2   178  LYS178      0.2592
     20  O          2.0400   26.7260   43.5920 O.2   178  LYS178     -0.2718
     21  CB         2.8170   23.8330   44.1900 C.3   178  LYS178      0.0285
     22  CG         4.2580   23.3750   44.3110 C.3   178  LYS178      0.0035
     23  CD         4.6060   22.3000   43.2870 C.3   178  LYS178      0.0206
     24  CE         4.2060   20.9050   43.7600 C.3   178  LYS178      0.1093
     25  NZ         2.7710   20.5950   43.5030 N.3   178  LYS178     -0.1314
     26  N          0.2590   25.9960   44.7600 N.am  179  THR179     -0.1953
     27  CA        -0.6830   26.8770   44.0690 C.3   179  THR179      0.1897
     28  C         -1.4640   27.7970   45.0180 C.2   179  THR179      0.2313
     29  O         -2.3080   28.5780   44.5770 O.2   179  THR179     -0.2863
     30  CB        -1.6320   26.0550   43.1580 C.3   179  THR179      0.1794
     31  OG1       -0.8800   25.0580   42.4540 O.3   179  THR179     -0.2208
     32  CG2       -2.1920   26.9200   42.0310 C.3   179  THR179      0.0378
     33  N          1.9280   25.5520   33.1580 N.3   203  ILE203     -0.1231
     34  CA         2.1460   24.4960   32.1660 C.3   203  ILE203      0.1692
     35  C          1.6260   23.1500   32.6730 C.2   203  ILE203      0.2592
     36  O          1.9150   22.7510   33.8040 O.2   203  ILE203     -0.2718
     37  CB         3.6480   24.4220   31.7760 C.3   203  ILE203      0.0266
     38  CG1        4.0230   25.6160   30.8930 C.3   203  ILE203      0.0019
     39  CG2        3.9690   23.1110   31.0530 C.3   203  ILE203      0.0020
     40  CD1        5.4620   26.0680   31.0340 C.3   203  ILE203      0.0001
     41  N          0.8550   22.4660   31.8230 N.am  204  ASP204     -0.1960
     42  CA         0.2080   21.1850   32.1550 C.3   204  ASP204      0.1840
     43  C         -0.8630   21.3100   33.2460 C.2   204  ASP204      0.2622
     44  O         -1.2320   20.3220   33.8860 O.2   204  ASP204     -0.2715
     45  CB         1.2430   20.1120   32.5290 C.3   204  ASP204      0.1450
     46  CG         1.6610   19.2610   31.3430 C.2   204  ASP204      0.3671
     47  OD1        0.7830   18.6210   30.7260 O.co2 204  ASP204     -0.2456
     48  OD2        2.8470   19.1610   30.9650 O.co2 204  ASP204     -0.2456
     49  N         -1.3700   22.5280   33.4310 N.am  205  GLU205     -0.1963
     50  CA        -2.3420   22.8310   34.4820 C.3   205  GLU205      0.1733
     51  C         -3.7250   22.2410   34.1890 C.2   205  GLU205      0.2616
     52  O         -4.0450   21.9210   33.0440 O.2   205  GLU205     -0.2715
     53  CB        -2.4290   24.3510   34.6970 C.3   205  GLU205      0.0429
     54  CG        -3.2440   24.7920   35.9080 C.3   205  GLU205      0.1163
     55  CD        -2.6270   24.3600   37.2240 C.2   205  GLU205      0.3649
     56  OE1       -1.7310   25.0730   37.7240 O.co2 205  GLU205     -0.2457
     57  OE2       -3.0460   23.3140   37.7640 O.co2 205  GLU205     -0.2457
     58  N         -4.5290   22.0850   35.2380 N.am  206  ARG206     -0.1977
     59  CA        -5.9130   21.6400   35.1060 C.3   206  ARG206      0.1597
     60  C         -6.8290   22.8260   34.7950 C.2   206  ARG206      0.2287
     61  O         -6.6440   23.9110   35.3520 O.2   206  ARG206     -0.2864
     62  CB        -6.3680   20.9260   36.3820 C.3   206  ARG206      0.0334
     63  CG        -5.6590   19.6020   36.6320 C.3   206  ARG206      0.0492
     64  CD        -6.0110   18.9190   37.9530 C.3   206  ARG206      0.2205
     65  NE        -5.9150   19.8130   39.1090 N.pl3 206  ARG206     -0.0865
     66  CZ        -4.7780   20.2750   39.6240 C.cat 206  ARG206      0.5346
     67  NH1       -3.6100   19.9520   39.0870 N.pl3 206  ARG206      0.1354
     68  NH2       -4.8110   21.0780   40.6790 N.pl3 206  ARG206      0.1354
     69  N          4.7660   27.7460   37.0870 N.3   259  ASP259     -0.1225
     70  CA         4.3940   26.4890   37.7170 C.3   259  ASP259      0.1805
     71  C          4.9860   25.3150   36.9450 C.2   259  ASP259      0.2598
     72  O          4.6740   25.1100   35.7680 O.2   259  ASP259     -0.2718
     73  CB         2.8740   26.3550   37.8400 C.3   259  ASP259      0.1424
     74  CG         2.4550   25.5650   39.0730 C.2   259  ASP259      0.3668
     75  OD1        3.3190   24.9140   39.6990 O.co2 259  ASP259     -0.2456
     76  OD2        1.2790   25.5380   39.4920 O.co2 259  ASP259     -0.2456
     77  N          5.8480   24.5640   37.6290 N.am  260  SER260     -0.1952
     78  CA         6.5730   23.4040   37.0840 C.3   260  SER260      0.1924
     79  C          7.5100   23.7010   35.9090 C.2   260  SER260      0.2314
     80  O          7.0710   23.8860   34.7720 O.2   260  SER260     -0.2863
     81  CB         5.6320   22.2340   36.7610 C.3   260  SER260      0.2116
     82  OG         4.6730   22.5850   35.7800 O.3   260  SER260     -0.2180
     83  N          7.4370   20.0630   34.2220 N.3   263  ARG263     -0.1245
     84  CA         6.4580   19.8130   33.1590 C.3   263  ARG263      0.1563
     85  C          6.8440   20.4630   31.8360 C.2   263  ARG263      0.2260
     86  O          6.5530   19.9240   30.7650 O.2   263  ARG263     -0.2867
     87  CB         5.0620   20.2710   33.5890 C.3   263  ARG263      0.0307
     88  CG         4.3940   19.3500   34.5980 C.3   263  ARG263      0.0489
     89  CD         3.9220   18.0350   34.0060 C.3   263  ARG263      0.2205
     90  NE         4.1400   16.9110   34.9120 N.pl3 263  ARG263     -0.0865
     91  CZ         4.1460   15.6380   34.5340 C.cat 263  ARG263      0.5346
     92  NH1        3.9450   15.3120   33.2630 N.pl3 263  ARG263      0.1354
     93  NH2        4.3530   14.6840   35.4310 N.pl3 263  ARG263      0.1354
     94  N          8.8020   20.0040   40.7460 N.3   311  LEU311     -0.1245
     95  CA         7.9830   18.8620   41.1540 C.3   311  LEU311      0.1561
     96  C          8.8210   17.7270   41.7360 C.2   311  LEU311      0.2260
     97  O          9.8150   17.3010   41.1400 O.2   311  LEU311     -0.2867
     98  CB         7.1270   18.3490   39.9900 C.3   311  LEU311      0.0270
     99  CG         5.9190   19.1850   39.5510 C.3   311  LEU311      0.0019
    100  CD1        5.3800   18.6830   38.2200 C.3   311  LEU311      0.0001
    101  CD2        4.8200   19.1810   40.6040 C.3   311  LEU311      0.0001
    102  N          6.2330   12.9830   43.0010 N.3   314  THR314     -0.1218
    103  CA         5.0480   12.7710   42.1690 C.3   314  THR314      0.1862
    104  C          4.8610   11.2830   41.8650 C.2   314  THR314      0.2287
    105  O          3.7440   10.7650   41.9190 O.2   314  THR314     -0.2866
    106  CB         5.1540   13.5920   40.8590 C.3   314  THR314      0.1770
    107  OG1        5.1560   14.9900   41.1690 O.3   314  THR314     -0.2211
    108  CG2        3.9000   13.4230   40.0010 C.3   314  THR314      0.0375
@<TRIPOS>BOND
     1    47    46   ar
     2    86    85    2
     3    38    40    1
     4    38    37    1
     5    48    46   ar
     6    39    37    1
     7    46    45    1
     8    37    34    1
     9    41    42    1
    10    41    35   am
    11    85    84    1
    12    42    45    1
    13    42    43    1
    14    34    35    1
    15    34    33    1
    16    35    36    2
    17    52    51    2
    18    84    87    1
    19    84    83    1
    20    43    49   am
    21    43    44    2
    22    92    91    1
    23    49    50    1
    24    87    88    1
    25    89    88    1
    26    89    90    1
    27    51    50    1
    28    51    58   am
    29    50    53    1
    30    91    90    2
    31    91    93    1
    32    53    54    1
    33    80    79    2
    34    60    59    1
    35    60    61    2
    36    59    58    1
    37    59    62    1
    38    72    71    2
    39    82    81    1
    40    54    55    1
    41    79    78    1
    42    62    63    1
    43    63    64    1
    44    81    78    1
    45    71    77   am
    46    71    70    1
    47    78    77    1
    48    69    70    1
    49    55    56   ar
    50    55    57   ar
    51    70    73    1
    52    73    74    1
    53    64    65    1
    54   100    99    1
    55    74    76   ar
    56    74    75   ar
    57    67    66    1
    58    65    66    2
    59    99    98    1
    60    99   101    1
    61    66    68    1
    62    98    95    1
    63   108   106    1
    64    94    95    1
    65   106   107    1
    66   106   103    1
    67    97    96    2
    68    95    96    1
    69   104   105    2
    70   104   103    1
    71    32    30    1
    72   103   102    1
    73    31    30    1
    74    30    27    1
    75    23    24    1
    76    23    22    1
    77    25    24    1
    78    20    19    2
    79    27    26    1
    80    27    28    1
    81    21    22    1
    82    21    18    1
    83    19    26   am
    84    19    18    1
    85     5     6    1
    86     5     2    1
    87    29    28    2
    88     6     7    1
    89     7     1    1
    90    18    17    1
    91     2     1    1
    92     2     3    1
    93    16    15    1
    94     8     3   am
    95     8     9    1
    96     3     4    2
    97    15    14    1
    98    13    14    1
    99    13    12    1
   100     9    12    1
   101     9    10    1
   102    10    11    2
