@<TRIPOS>MOLECULE
tmp/1xpoL00.pdb
 114 109 0 0 0
SMALL
GASTEIGER

@<TRIPOS>ATOM
      1  N         27.5580  -34.5710   26.9560 N.3    58  LEU58      -0.1245
      2  CA        27.1980  -33.1670   26.7840 C.3    58  LEU58       0.1561
      3  C         25.7700  -33.0060   26.2590 C.2    58  LEU58       0.2260
      4  O         25.1750  -33.9620   25.7560 O.2    58  LEU58      -0.2867
      5  CB        28.2080  -32.4600   25.8690 C.3    58  LEU58       0.0270
      6  CG        29.6880  -32.5100   26.2780 C.3    58  LEU58       0.0019
      7  CD1       30.5670  -31.8760   25.2120 C.3    58  LEU58       0.0001
      8  CD2       29.9300  -31.8430   27.6320 C.3    58  LEU58       0.0001
      9  N         24.1650  -32.1500   23.7200 N.3    60  ASP60      -0.1239
     10  CA        23.7900  -32.6900   22.4110 C.3    60  ASP60       0.1674
     11  C         23.4000  -34.1700   22.4750 C.2    60  ASP60       0.2266
     12  O         22.4010  -34.5810   21.8800 O.2    60  ASP60      -0.2867
     13  CB        24.9190  -32.4880   21.3940 C.3    60  ASP60       0.1410
     14  CG        25.5380  -31.1020   21.4680 C.2    60  ASP60       0.3668
     15  OD1       25.4820  -30.3700   20.4580 O.co2  60  ASP60      -0.2456
     16  OD2       26.1020  -30.6580   22.4920 O.co2  60  ASP60      -0.2456
     17  N         26.2410  -36.6850   22.6610 N.3    62  PHE62      -0.1241
     18  CA        27.5280  -37.3650   22.5280 C.3    62  PHE62       0.1605
     19  C         28.3570  -37.2770   23.8090 C.2    62  PHE62       0.2264
     20  O         28.1700  -36.3680   24.6210 O.2    62  PHE62      -0.2867
     21  CB        28.3100  -36.8050   21.3280 C.3    62  PHE62       0.0534
     22  CG        28.8100  -35.3890   21.5150 C.ar   62  PHE62      -0.0203
     23  CD1       30.1510  -35.0840   21.3120 C.ar   62  PHE62      -0.0042
     24  CD2       27.9420  -34.3620   21.8820 C.ar   62  PHE62      -0.0042
     25  CE1       30.6220  -33.7840   21.4720 C.ar   62  PHE62      -0.0003
     26  CE2       28.4080  -33.0600   22.0500 C.ar   62  PHE62      -0.0003
     27  CZ        29.7490  -32.7720   21.8410 C.ar   62  PHE62      -0.0000
     28  N         32.3490  -37.9370   25.9980 N.3    64  PHE64      -0.1241
     29  CA        33.7950  -37.7220   25.9300 C.3    64  PHE64       0.1605
     30  C         34.5230  -38.4490   27.0550 C.2    64  PHE64       0.2264
     31  O         34.0570  -38.4640   28.1960 O.2    64  PHE64      -0.2867
     32  CB        34.1250  -36.2270   25.9980 C.3    64  PHE64       0.0534
     33  CG        34.4120  -35.6030   24.6600 C.ar   64  PHE64      -0.0203
     34  CD1       35.5270  -35.9920   23.9200 C.ar   64  PHE64      -0.0042
     35  CD2       33.5830  -34.6090   24.1490 C.ar   64  PHE64      -0.0042
     36  CE1       35.8010  -35.4120   22.6850 C.ar   64  PHE64      -0.0003
     37  CE2       33.8520  -34.0210   22.9170 C.ar   64  PHE64      -0.0003
     38  CZ        34.9620  -34.4240   22.1840 C.ar   64  PHE64      -0.0000
     39  N         37.5580  -38.2260   29.3770 N.3    66  ARG66      -0.1245
     40  CA        38.5500  -37.3000   29.9190 C.3    66  ARG66       0.1563
     41  C         39.5250  -38.0380   30.8310 C.2    66  ARG66       0.2260
     42  O         39.1360  -38.9580   31.5540 O.2    66  ARG66      -0.2867
     43  CB        37.8710  -36.1690   30.7020 C.3    66  ARG66       0.0307
     44  CG        36.6320  -35.5650   30.0430 C.3    66  ARG66       0.0489
     45  CD        36.9130  -34.4890   29.0030 C.3    66  ARG66       0.2205
     46  NE        35.7020  -33.7380   28.6780 N.pl3  66  ARG66      -0.0865
     47  CZ        35.5010  -33.0770   27.5430 C.cat  66  ARG66       0.5346
     48  NH1       36.4310  -33.0690   26.5950 N.pl3  66  ARG66       0.1354
     49  NH2       34.3630  -32.4260   27.3490 N.pl3  66  ARG66       0.1354
     50  N         39.2860  -30.6350   29.5460 N.3    74  ALA74      -0.1231
     51  CA        39.0390  -30.9310   28.1370 C.3    74  ALA74       0.1694
     52  C         40.2820  -30.6980   27.2850 C.2    74  ALA74       0.2592
     53  O         40.8220  -29.5890   27.2440 O.2    74  ALA74      -0.2718
     54  CB        37.8690  -30.1040   27.6170 C.3    74  ALA74       0.0304
     55  N         40.7370  -31.7550   26.6200 N.am   75  GLY75      -0.1957
     56  CA        41.9390  -31.6980   25.7960 C.3    75  GLY75       0.1869
     57  C         41.7210  -32.2200   24.3850 C.2    75  GLY75       0.2309
     58  O         40.7670  -32.9600   24.1330 O.2    75  GLY75      -0.2863
     59  N         41.3750  -36.2360   23.8340 N.3    78  ASP78      -0.1239
     60  CA        40.3120  -37.0090   24.4780 C.3    78  ASP78       0.1674
     61  C         39.7550  -38.0560   23.5100 C.2    78  ASP78       0.2266
     62  O         40.2480  -38.1950   22.3880 O.2    78  ASP78      -0.2867
     63  CB        39.1920  -36.0820   24.9690 C.3    78  ASP78       0.1410
     64  CG        39.5970  -35.2540   26.1820 C.2    78  ASP78       0.3668
     65  OD1       40.3260  -35.7740   27.0540 O.co2  78  ASP78      -0.2456
     66  OD2       39.2180  -34.0760   26.3520 O.co2  78  ASP78      -0.2456
     67  N         36.2180  -39.4090   21.6160 N.3    80  TYR80      -0.1241
     68  CA        34.8290  -39.1760   21.2280 C.3    80  TYR80       0.1605
     69  C         34.0000  -40.4470   21.3820 C.2    80  TYR80       0.2264
     70  O         34.4210  -41.5290   20.9620 O.2    80  TYR80      -0.2867
     71  CB        34.7650  -38.6700   19.7810 C.3    80  TYR80       0.0534
     72  CG        33.3640  -38.4350   19.2530 C.ar   80  TYR80      -0.0201
     73  CD1       32.6970  -37.2380   19.5000 C.ar   80  TYR80      -0.0009
     74  CD2       32.7110  -39.4090   18.4930 C.ar   80  TYR80      -0.0009
     75  CE1       31.4120  -37.0170   19.0150 C.ar   80  TYR80       0.0417
     76  CE2       31.4250  -39.1960   18.0030 C.ar   80  TYR80       0.0417
     77  CZ        30.7820  -37.9990   18.2680 C.ar   80  TYR80       0.1957
     78  OH        29.5120  -37.7790   17.7870 O.3    80  TYR80      -0.2866
     79  N         36.6810  -33.9830    8.9170 N.3   107  GLY107     -0.1210
     80  CA        35.9500  -33.0660    9.7910 C.3   107  GLY107      0.1956
     81  C         36.3010  -33.2410   11.2570 C.2   107  GLY107      0.2612
     82  O         36.7010  -32.2840   11.9230 O.2   107  GLY107     -0.2717
     83  N         36.1410  -34.4690   11.7550 N.am  108  GLU108     -0.1965
     84  CA        36.4530  -34.8130   13.1440 C.3   108  GLU108      0.1733
     85  C         37.8930  -34.4760   13.5210 C.2   108  GLU108      0.2616
     86  O         38.8230  -34.7230   12.7490 O.2   108  GLU108     -0.2715
     87  CB        36.1640  -36.2960   13.4190 C.3   108  GLU108      0.0429
     88  CG        36.6740  -37.2630   12.3600 C.3   108  GLU108      0.1163
     89  CD        36.4220  -38.7140   12.7220 C.2   108  GLU108      0.3649
     90  OE1       37.0020  -39.1950   13.7190 O.co2 108  GLU108     -0.2457
     91  OE2       35.6490  -39.3810   12.0010 O.co2 108  GLU108     -0.2457
     92  N         38.0620  -33.9070   14.7110 N.am  109  ARG109     -0.1963
     93  CA        39.3710  -33.4590   15.1780 C.3   109  ARG109      0.1729
     94  C         39.9100  -34.3040   16.3300 C.2   109  ARG109      0.2616
     95  O         41.0730  -34.1700   16.7070 O.2   109  ARG109     -0.2715
     96  CB        39.3180  -31.9820   15.5810 C.3   109  ARG109      0.0348
     97  CG        39.2810  -31.0290   14.4000 C.3   109  ARG109      0.0492
     98  CD        38.8140  -29.6270   14.7400 C.3   109  ARG109      0.2205
     99  NE        38.6060  -28.8290   13.5330 N.pl3 109  ARG109     -0.0865
    100  CZ        37.9770  -27.6590   13.4990 C.cat 109  ARG109      0.5346
    101  NH1       37.4820  -27.1270   14.6100 N.pl3 109  ARG109      0.1354
    102  NH2       37.8400  -27.0150   12.3480 N.pl3 109  ARG109      0.1354
    103  N         39.0680  -35.1740   16.8800 N.am  110  TYR110     -0.1974
    104  CA        39.4660  -36.0280   17.9980 C.3   110  TYR110      0.1639
    105  C         39.4540  -37.5060   17.6210 C.2   110  TYR110      0.2290
    106  O         38.7780  -37.9140   16.6730 O.2   110  TYR110     -0.2864
    107  CB        38.5640  -35.7960   19.2160 C.3   110  TYR110      0.0560
    108  CG        38.1400  -34.3570   19.4230 C.ar  110  TYR110     -0.0198
    109  CD1       39.0500  -33.3930   19.8590 C.ar  110  TYR110     -0.0009
    110  CD2       36.8220  -33.9650   19.1920 C.ar  110  TYR110     -0.0009
    111  CE1       38.6580  -32.0700   20.0510 C.ar  110  TYR110      0.0417
    112  CE2       36.4200  -32.6470   19.3830 C.ar  110  TYR110      0.0417
    113  CZ        37.3420  -31.7060   19.8120 C.ar  110  TYR110      0.1957
    114  OH        36.9480  -30.4010   20.0010 O.3   110  TYR110     -0.2866
@<TRIPOS>BOND
     1    79    80    1
     2    80    81    1
     3    81    83   am
     4    81    82    2
     5    83    84    1
     6    91    89   ar
     7   102   100    1
     8    88    89    1
     9    88    87    1
    10    89    90   ar
    11    86    85    2
    12    84    87    1
    13    84    85    1
    14   100    99    2
    15   100   101    1
    16    85    92   am
    17    99    98    1
    18    97    98    1
    19    97    96    1
    20    92    93    1
    21    93    96    1
    22    93    94    1
    23    94    95    2
    24    94   103   am
    25   106   105    2
    26   103   104    1
    27   105   104    1
    28    78    77    1
    29   104   107    1
    30    76    77   ar
    31    76    74   ar
    32    77    75   ar
    33    74    72   ar
    34    75    73   ar
    35   110   112   ar
    36   110   108   ar
    37   107   108    1
    38    72    73   ar
    39    72    71    1
    40   112   113   ar
    41   108   109   ar
    42    71    68    1
    43   113   114    1
    44   113   111   ar
    45   109   111   ar
    46    15    14   ar
    47    70    69    2
    48    68    69    1
    49    68    67    1
    50    23    25   ar
    51    23    22   ar
    52    21    22    1
    53    21    18    1
    54    13    14    1
    55    13    10    1
    56    14    16   ar
    57    25    27   ar
    58    22    24   ar
    59    27    26   ar
    60    12    11    2
    61    24    26   ar
    62    38    36   ar
    63    38    37   ar
    64    62    61    2
    65    10    11    1
    66    10     9    1
    67    18    17    1
    68    18    19    1
    69    36    34   ar
    70    37    35   ar
    71    61    60    1
    72    19    20    2
    73    59    60    1
    74    34    33   ar
    75    58    57    2
    76    35    33   ar
    77    57    56    1
    78    60    63    1
    79    33    32    1
    80    63    64    1
    81     7     6    1
    82     4     3    2
    83    56    55    1
    84     5     6    1
    85     5     2    1
    86    29    28    1
    87    29    32    1
    88    29    30    1
    89    64    66   ar
    90    64    65   ar
    91     3     2    1
    92     6     8    1
    93    48    47    1
    94    55    52   am
    95     2     1    1
    96    30    31    2
    97    53    52    2
    98    52    51    1
    99    49    47    1
   100    47    46    2
   101    54    51    1
   102    51    50    1
   103    46    45    1
   104    45    44    1
   105    39    40    1
   106    40    43    1
   107    40    41    1
   108    44    43    1
   109    41    42    2
