@<TRIPOS>MOLECULE
tmp/1xpoI00.pdb
 113 108 0 0 0
SMALL
GASTEIGER

@<TRIPOS>ATOM
      1  N          7.4280   34.2250   12.4870 N.3    58  LEU58      -0.1245
      2  CA         7.4220   32.8080   12.1360 C.3    58  LEU58       0.1561
      3  C          8.6520   32.4140   11.3230 C.2    58  LEU58       0.2260
      4  O          9.3810   33.2740   10.8200 O.2    58  LEU58      -0.2867
      5  CB         6.1340   32.4400   11.3870 C.3    58  LEU58       0.0270
      6  CG         4.8250   32.4660   12.1870 C.3    58  LEU58       0.0019
      7  CD1        3.6370   32.2890   11.2640 C.3    58  LEU58       0.0001
      8  CD2        4.8080   31.4060   13.2860 C.3    58  LEU58       0.0001
      9  N          8.9260   31.3950    8.5190 N.3    60  ASP60      -0.1239
     10  CA         8.7980   31.7770    7.1130 C.3    60  ASP60       0.1674
     11  C          9.4010   33.1560    6.8380 C.2    60  ASP60       0.2266
     12  O          9.9290   33.4020    5.7510 O.2    60  ASP60      -0.2867
     13  CB         7.3320   31.7480    6.6720 C.3    60  ASP60       0.1410
     14  CG         6.5700   30.5600    7.2380 C.2    60  ASP60       0.3668
     15  OD1        6.2740   29.6190    6.4710 O.co2  60  ASP60      -0.2456
     16  OD2        6.2320   30.4790    8.4400 O.co2  60  ASP60      -0.2456
     17  N          7.6360   36.2860    8.0110 N.3    62  PHE62      -0.1241
     18  CA         6.6160   37.2400    8.4540 C.3    62  PHE62       0.1605
     19  C          6.2300   37.0080    9.9180 C.2    62  PHE62       0.2264
     20  O          6.7430   36.0930   10.5650 O.2    62  PHE62      -0.2867
     21  CB         5.3790   37.1650    7.5430 C.3    62  PHE62       0.0534
     22  CG         4.7170   35.8120    7.5210 C.ar   62  PHE62      -0.0203
     23  CD1        3.7170   35.4970    8.4380 C.ar   62  PHE62      -0.0042
     24  CD2        5.0870   34.8540    6.5820 C.ar   62  PHE62      -0.0042
     25  CE1        3.1050   34.2490    8.4240 C.ar   62  PHE62      -0.0003
     26  CE2        4.4750   33.6040    6.5600 C.ar   62  PHE62      -0.0003
     27  CZ         3.4860   33.2990    7.4840 C.ar   62  PHE62      -0.0000
     28  N          2.9460   37.7340   13.2540 N.3    64  PHE64      -0.1241
     29  CA         1.5720   38.0110   13.6650 C.3    64  PHE64       0.1605
     30  C          1.5250   38.5810   15.0790 C.2    64  PHE64       0.2264
     31  O          2.4800   38.4430   15.8440 O.2    64  PHE64      -0.2867
     32  CB         0.7230   36.7370   13.6030 C.3    64  PHE64       0.0534
     33  CG         0.2380   36.3950   12.2250 C.ar   64  PHE64      -0.0203
     34  CD1       -0.7740   37.1400   11.6240 C.ar   64  PHE64      -0.0042
     35  CD2        0.7760   35.3160   11.5330 C.ar   64  PHE64      -0.0042
     36  CE1       -1.2300   36.8240   10.3490 C.ar   64  PHE64      -0.0003
     37  CE2        0.3210   34.9890   10.2590 C.ar   64  PHE64      -0.0003
     38  CZ        -0.6820   35.7460    9.6660 C.ar   64  PHE64      -0.0000
     39  N         -0.2380   38.0130   18.4430 N.3    66  ARG66      -0.1245
     40  CA        -1.0320   37.0860   19.2470 C.3    66  ARG66       0.1563
     41  C         -1.5250   37.7690   20.5170 C.2    66  ARG66       0.2260
     42  O         -0.8250   38.6050   21.0940 O.2    66  ARG66      -0.2867
     43  CB        -0.2140   35.8370   19.6060 C.3    66  ARG66       0.0307
     44  CG         0.5800   35.2240   18.4500 C.3    66  ARG66       0.0489
     45  CD        -0.2550   34.4660   17.4260 C.3    66  ARG66       0.2205
     46  NE         0.5450   34.0760   16.2660 N.pl3  66  ARG66      -0.0865
     47  CZ         0.0540   33.5430   15.1520 C.cat  66  ARG66       0.5346
     48  NH1       -1.2480   33.3270   15.0220 N.pl3  66  ARG66       0.1354
     49  NH2        0.8710   33.2270   14.1580 N.pl3  66  ARG66       0.1354
     50  N         -2.7410   30.5720   18.2000 N.3    74  ALA74      -0.1245
     51  CA        -2.9450   30.9460   16.8030 C.3    74  ALA74       0.1562
     52  C         -4.4230   30.8850   16.4260 C.2    74  ALA74       0.2260
     53  O         -5.0310   29.8100   16.4230 O.2    74  ALA74      -0.2867
     54  CB        -2.1160   30.0540   15.8850 C.3    74  ALA74       0.0290
     55  N         -1.8800   40.8040   11.2240 N.3    80  TYR80      -0.1241
     56  CA        -0.7630   40.5210   10.3240 C.3    80  TYR80       0.1605
     57  C          0.2750   41.6390   10.2990 C.2    80  TYR80       0.2264
     58  O         -0.0640   42.8190   10.1750 O.2    80  TYR80      -0.2867
     59  CB        -1.2710   40.2340    8.9050 C.3    80  TYR80       0.0534
     60  CG        -0.1700   40.0080    7.8880 C.ar   80  TYR80      -0.0201
     61  CD1        0.5860   38.8360    7.8980 C.ar   80  TYR80      -0.0009
     62  CD2        0.1190   40.9690    6.9180 C.ar   80  TYR80      -0.0009
     63  CE1        1.6030   38.6280    6.9740 C.ar   80  TYR80       0.0417
     64  CE2        1.1330   40.7690    5.9860 C.ar   80  TYR80       0.0417
     65  CZ         1.8690   39.5950    6.0190 C.ar   80  TYR80       0.1957
     66  OH         2.8730   39.3880    5.1010 O.3    80  TYR80      -0.2866
     67  N         -5.8120   47.6980    9.6510 N.3   102  ARG102     -0.1245
     68  CA        -6.7100   47.7320    8.4940 C.3   102  ARG102      0.1563
     69  C         -7.3470   46.3640    8.2060 C.2   102  ARG102      0.2260
     70  O         -6.6890   45.3300    8.3460 O.2   102  ARG102     -0.2867
     71  CB        -5.9870   48.2760    7.2500 C.3   102  ARG102      0.0307
     72  CG        -4.8340   47.4160    6.7440 C.3   102  ARG102      0.0489
     73  CD        -4.5220   47.6120    5.2680 C.3   102  ARG102      0.2205
     74  NE        -3.7600   46.4930    4.7140 N.pl3 102  ARG102     -0.0865
     75  CZ        -4.2990   45.3680    4.2480 C.cat 102  ARG102      0.5346
     76  NH1       -5.6140   45.1910    4.2660 N.pl3 102  ARG102      0.1354
     77  NH2       -3.5170   44.4130    3.7650 N.pl3 102  ARG102      0.1354
     78  N         -9.3630   37.7780   -0.6070 N.3   107  GLY107     -0.1210
     79  CA        -8.3680   36.7050   -0.5670 C.3   107  GLY107      0.1956
     80  C         -7.3590   36.9290    0.5450 C.2   107  GLY107      0.2612
     81  O         -6.3110   36.2800    0.5880 O.2   107  GLY107     -0.2717
     82  N         -7.6850   37.8600    1.4380 N.am  108  GLU108     -0.1965
     83  CA        -6.8480   38.1980    2.5780 C.3   108  GLU108      0.1733
     84  C         -7.5290   37.6720    3.8380 C.2   108  GLU108      0.2616
     85  O         -8.7140   37.9310    4.0660 O.2   108  GLU108     -0.2715
     86  CB        -6.6620   39.7130    2.6540 C.3   108  GLU108      0.0429
     87  CG        -5.2430   40.1640    2.9630 C.3   108  GLU108      0.1163
     88  CD        -5.0050   41.6220    2.6140 C.2   108  GLU108      0.3649
     89  OE1       -5.6340   42.5010    3.2420 O.co2 108  GLU108     -0.2457
     90  OE2       -4.1800   41.8910    1.7160 O.co2 108  GLU108     -0.2457
     91  N         -6.7820   36.9280    4.6470 N.am  109  ARG109     -0.1963
     92  CA        -7.3620   36.2050    5.7780 C.3   109  ARG109      0.1729
     93  C         -7.3260   36.9830    7.0910 C.2   109  ARG109      0.2616
     94  O         -8.2190   36.8340    7.9270 O.2   109  ARG109     -0.2715
     95  CB        -6.6700   34.8520    5.9550 C.3   109  ARG109      0.0348
     96  CG        -7.5300   33.7920    6.6400 C.3   109  ARG109      0.0492
     97  CD        -6.8100   32.4790    6.9120 C.3   109  ARG109      0.2205
     98  NE        -6.1120   31.9780    5.7300 N.pl3 109  ARG109     -0.0865
     99  CZ        -5.5500   30.7780    5.6350 C.cat 109  ARG109      0.5346
    100  NH1       -5.6000   29.9260    6.6520 N.pl3 109  ARG109      0.1354
    101  NH2       -4.9380   30.4240    4.5130 N.pl3 109  ARG109      0.1354
    102  N         -6.2970   37.8090    7.2700 N.am  110  TYR110     -0.1974
    103  CA        -6.0820   38.4950    8.5450 C.3   110  TYR110      0.1639
    104  C         -5.9800   40.0100    8.4080 C.2   110  TYR110      0.2290
    105  O         -5.5910   40.5290    7.3580 O.2   110  TYR110     -0.2864
    106  CB        -4.8370   37.9410    9.2470 C.3   110  TYR110      0.0560
    107  CG        -4.8570   36.4400    9.4400 C.ar  110  TYR110     -0.0198
    108  CD1       -5.6130   35.8570   10.4570 C.ar  110  TYR110     -0.0009
    109  CD2       -4.1210   35.6030    8.6040 C.ar  110  TYR110     -0.0009
    110  CE1       -5.6370   34.4770   10.6350 C.ar  110  TYR110      0.0417
    111  CE2       -4.1360   34.2220    8.7750 C.ar  110  TYR110      0.0417
    112  CZ        -4.8960   33.6660    9.7910 C.ar  110  TYR110      0.1957
    113  OH        -4.9140   32.3020    9.9650 O.3   110  TYR110     -0.2866
@<TRIPOS>BOND
     1    78    79    1
     2    79    80    1
     3    80    81    2
     4    80    82   am
     5    82    83    1
     6    90    88   ar
     7    83    86    1
     8    83    84    1
     9    88    87    1
    10    88    89   ar
    11    86    87    1
    12    77    75    1
    13    84    85    2
    14    84    91   am
    15    75    76    1
    16    75    74    2
    17   101    99    1
    18    91    92    1
    19    74    73    1
    20    66    65    1
    21    73    72    1
    22    99    98    2
    23    99   100    1
    24    98    97    1
    25    12    11    2
    26    92    95    1
    27    92    93    1
    28    95    96    1
    29    64    65   ar
    30    64    62   ar
    31    65    63   ar
    32    15    14   ar
    33    26    24   ar
    34    26    27   ar
    35    24    22   ar
    36    96    97    1
    37    13    10    1
    38    13    14    1
    39    72    71    1
    40    11    10    1
    41    62    60   ar
    42    63    61   ar
    43    93   102   am
    44    93    94    2
    45    10     9    1
    46    14    16   ar
    47    71    68    1
    48   102   103    1
    49   105   104    2
    50    27    25   ar
    51    22    21    1
    52    22    23   ar
    53    21    18    1
    54    60    61   ar
    55    60    59    1
    56    17    18    1
    57    69    70    2
    58    69    68    1
    59   104   103    1
    60    25    23   ar
    61    18    19    1
    62    68    67    1
    63   103   106    1
    64   109   111   ar
    65   109   107   ar
    66   111   112   ar
    67    59    56    1
    68   106   107    1
    69   107   108   ar
    70    38    37   ar
    71    38    36   ar
    72   112   113    1
    73   112   110   ar
    74    19    20    2
    75    58    57    2
    76    37    35   ar
    77    57    56    1
    78    56    55    1
    79    36    34   ar
    80   108   110   ar
    81     4     3    2
    82     7     6    1
    83     3     2    1
    84     5     2    1
    85     5     6    1
    86    35    33   ar
    87    34    33   ar
    88     2     1    1
    89     6     8    1
    90    33    32    1
    91    28    29    1
    92    32    29    1
    93    29    30    1
    94    49    47    1
    95    48    47    1
    96    30    31    2
    97    47    46    2
    98    54    51    1
    99    46    45    1
   100    53    52    2
   101    52    51    1
   102    51    50    1
   103    45    44    1
   104    39    40    1
   105    44    43    1
   106    40    43    1
   107    40    41    1
   108    41    42    2
