@<TRIPOS>MOLECULE
tmp/1xpoI01.pdb
 119 116 0 0 0
SMALL
GASTEIGER

@<TRIPOS>ATOM
      1  N          2.0810   33.7180   55.3810 N.3   152  THR152     -0.1218
      2  CA         2.8880   33.0650   54.3520 C.3   152  THR152      0.1862
      3  C          3.9960   33.9910   53.8420 C.2   152  THR152      0.2287
      4  O          5.1620   33.5970   53.7800 O.2   152  THR152     -0.2866
      5  CB         1.9890   32.5900   53.1820 C.3   152  THR152      0.1770
      6  OG1        1.1440   31.5220   53.6280 O.3   152  THR152     -0.2211
      7  CG2        2.8160   31.9390   52.0830 C.3   152  THR152      0.0375
      8  N          3.2780   17.1060   45.5910 N.3   174  PRO174     -0.2102
      9  CA         1.8670   17.3890   45.3190 C.3   174  PRO174      0.1504
     10  C          1.0490   17.5480   46.6020 C.2   174  PRO174      0.2576
     11  O          1.3350   16.8830   47.6030 O.2   174  PRO174     -0.2718
     12  CB         1.4030   16.1500   44.5460 C.3   174  PRO174      0.0282
     13  CG         2.3860   15.0900   44.8910 C.3   174  PRO174      0.0208
     14  CD         3.6900   15.8000   45.0450 C.3   174  PRO174      0.0893
     15  N          0.0500   18.4300   46.5580 N.am  175  LYS175     -0.1966
     16  CA        -0.8370   18.7130   47.6970 C.3   175  LYS175      0.1728
     17  C         -0.1080   19.3260   48.9010 C.2   175  LYS175      0.2616
     18  O         -0.4980   19.1030   50.0510 O.2   175  LYS175     -0.2715
     19  CB        -1.6210   17.4580   48.1170 C.3   175  LYS175      0.0311
     20  CG        -2.7550   17.0720   47.1820 C.3   175  LYS175      0.0038
     21  CD        -3.4540   15.8070   47.6650 C.3   175  LYS175      0.0206
     22  CE        -4.8140   15.6250   47.0030 C.3   175  LYS175      0.1093
     23  NZ        -4.7090   15.1710   45.5890 N.3   175  LYS175     -0.1314
     24  N          0.9380   20.1020   48.6320 N.am  176  ALA176     -0.1963
     25  CA         1.6940   20.7760   49.6880 C.3   176  ALA176      0.1728
     26  C          1.3050   22.2490   49.8110 C.2   176  ALA176      0.2617
     27  O          0.9350   22.7070   50.8930 O.2   176  ALA176     -0.2715
     28  CB         3.1940   20.6300   49.4560 C.3   176  ALA176      0.0334
     29  N          1.3920   22.9800   48.7020 N.am  177  GLY177     -0.1940
     30  CA         1.0210   24.3950   48.6710 C.3   177  GLY177      0.2014
     31  C          1.4910   25.1390   47.4320 C.2   177  GLY177      0.2639
     32  O          1.4940   26.3700   47.4090 O.2   177  GLY177     -0.2714
     33  N          1.8660   24.3890   46.3960 N.am  178  LYS178     -0.1963
     34  CA         2.4320   24.9510   45.1610 C.3   178  LYS178      0.1728
     35  C          1.5500   25.9730   44.4360 C.2   178  LYS178      0.2617
     36  O          2.0400   26.7260   43.5920 O.2   178  LYS178     -0.2715
     37  CB         2.8170   23.8330   44.1900 C.3   178  LYS178      0.0311
     38  CG         4.2580   23.3750   44.3110 C.3   178  LYS178      0.0038
     39  CD         4.6060   22.3000   43.2870 C.3   178  LYS178      0.0206
     40  CE         4.2060   20.9050   43.7600 C.3   178  LYS178      0.1093
     41  NZ         2.7710   20.5950   43.5030 N.3   178  LYS178     -0.1314
     42  N          0.2590   25.9960   44.7600 N.am  179  THR179     -0.1937
     43  CA        -0.6830   26.8770   44.0690 C.3   179  THR179      0.2028
     44  C         -1.4640   27.7970   45.0180 C.2   179  THR179      0.2642
     45  O         -2.3080   28.5780   44.5770 O.2   179  THR179     -0.2714
     46  CB        -1.6320   26.0550   43.1580 C.3   179  THR179      0.1808
     47  OG1       -0.8800   25.0580   42.4540 O.3   179  THR179     -0.2208
     48  CG2       -2.1920   26.9200   42.0310 C.3   179  THR179      0.0379
     49  N         -1.1840   27.7040   46.3160 N.am  180  MET180     -0.1962
     50  CA        -1.6510   28.7190   47.2610 C.3   180  MET180      0.1736
     51  C         -0.5090   29.6440   47.6660 C.2   180  MET180      0.2616
     52  O         -0.7300   30.8180   47.9710 O.2   180  MET180     -0.2715
     53  CB        -2.3050   28.0950   48.4890 C.3   180  MET180      0.0427
     54  CG        -3.8120   27.9600   48.3750 C.3   180  MET180      0.0599
     55  SD        -4.6630   28.3110   49.9250 S.3   180  MET180     -0.1393
     56  CE        -6.3710   28.1090   49.4260 C.3   180  MET180      0.0692
     57  N          0.7070   29.1030   47.6670 N.am  181  LEU181     -0.1977
     58  CA         1.9180   29.9000   47.8450 C.3   181  LEU181      0.1596
     59  C          2.1230   30.8030   46.6320 C.2   181  LEU181      0.2287
     60  O          2.5030   31.9650   46.7730 O.2   181  LEU181     -0.2864
     61  CB         3.1340   28.9900   48.0390 C.3   181  LEU181      0.0297
     62  CG         4.5070   29.6320   48.2560 C.3   181  LEU181      0.0022
     63  CD1        4.7680   29.8760   49.7310 C.3   181  LEU181      0.0001
     64  CD2        5.5900   28.7490   47.6720 C.3   181  LEU181      0.0001
     65  N         -0.2030   33.5960   46.7850 N.3   184  ASN184     -0.1240
     66  CA         0.2470   34.5130   47.8270 C.3   184  ASN184      0.1653
     67  C          1.3120   35.4800   47.3140 C.2   184  ASN184      0.2266
     68  O          1.2050   36.6900   47.5160 O.2   184  ASN184     -0.2867
     69  CB         0.7700   33.7310   49.0380 C.3   184  ASN184      0.1155
     70  CG         0.9470   34.6030   50.2670 C.2   184  ASN184      0.2627
     71  OD1        0.1080   34.5980   51.1660 O.2   184  ASN184     -0.2716
     72  ND2        2.0390   35.3580   50.3120 N.am  184  ASN184     -0.0877
     73  N         -1.3700   22.5280   33.4310 N.3   205  GLU205     -0.1231
     74  CA        -2.3420   22.8310   34.4820 C.3   205  GLU205      0.1699
     75  C         -3.7250   22.2410   34.1890 C.2   205  GLU205      0.2592
     76  O         -4.0450   21.9210   33.0440 O.2   205  GLU205     -0.2718
     77  CB        -2.4290   24.3510   34.6970 C.3   205  GLU205      0.0402
     78  CG        -3.2440   24.7920   35.9080 C.3   205  GLU205      0.1161
     79  CD        -2.6270   24.3600   37.2240 C.2   205  GLU205      0.3649
     80  OE1       -1.7310   25.0730   37.7240 O.co2 205  GLU205     -0.2457
     81  OE2       -3.0460   23.3140   37.7640 O.co2 205  GLU205     -0.2457
     82  N         -4.5290   22.0850   35.2380 N.am  206  ARG206     -0.1980
     83  CA        -5.9130   21.6400   35.1060 C.3   206  ARG206      0.1597
     84  C         -6.8290   22.8260   34.7950 C.2   206  ARG206      0.2287
     85  O         -6.6440   23.9110   35.3520 O.2   206  ARG206     -0.2864
     86  CB        -6.3680   20.9260   36.3820 C.3   206  ARG206      0.0334
     87  CG        -5.6590   19.6020   36.6320 C.3   206  ARG206      0.0492
     88  CD        -6.0110   18.9190   37.9530 C.3   206  ARG206      0.2205
     89  NE        -5.9150   19.8130   39.1090 N.pl3 206  ARG206     -0.0865
     90  CZ        -4.7780   20.2750   39.6240 C.cat 206  ARG206      0.5346
     91  NH1       -3.6100   19.9520   39.0870 N.pl3 206  ARG206      0.1354
     92  NH2       -4.8110   21.0780   40.6790 N.pl3 206  ARG206      0.1354
     93  N         -8.2080   24.9280   37.5980 N.3   209  GLU209     -0.1245
     94  CA        -7.1670   25.6440   38.3270 C.3   209  GLU209      0.1567
     95  C         -6.7240   26.8940   37.5650 C.2   209  GLU209      0.2260
     96  O         -6.2070   27.8420   38.1580 O.2   209  GLU209     -0.2867
     97  CB        -5.9720   24.7250   38.5970 C.3   209  GLU209      0.0388
     98  CG        -5.0620   25.1850   39.7290 C.3   209  GLU209      0.1160
     99  CD        -5.6850   24.9960   41.0990 C.2   209  GLU209      0.3649
    100  OE1       -6.1340   26.0000   41.6920 O.co2 209  GLU209     -0.2457
    101  OE2       -5.7340   23.8430   41.5820 O.co2 209  GLU209     -0.2457
    102  N         -0.1540   24.8330   57.9410 N.3   346  PHE346     -0.1228
    103  CA         0.0530   25.6500   56.7370 C.3   346  PHE346      0.1721
    104  C          1.4650   26.2490   56.6360 C.2   346  PHE346      0.2437
    105  O          2.3810   25.7610   57.2990 O.2   346  PHE346     -0.2733
    106  CB        -1.0300   26.7260   56.6220 C.3   346  PHE346      0.0547
    107  CG        -2.4100   26.1800   56.4070 C.ar  346  PHE346     -0.0202
    108  CD1       -2.6200   25.0380   55.6350 C.ar  346  PHE346     -0.0042
    109  CD2       -3.5120   26.8250   56.9630 C.ar  346  PHE346     -0.0042
    110  CE1       -3.9030   24.5360   55.4380 C.ar  346  PHE346     -0.0003
    111  CE2       -4.7990   26.3340   56.7680 C.ar  346  PHE346     -0.0003
    112  CZ        -4.9950   25.1880   56.0020 C.ar  346  PHE346     -0.0000
    113  N          1.6440   27.3420   55.8860 N.am  347  PRO347     -0.2729
    114  CA         2.8960   27.6070   55.2130 C.3   347  PRO347      0.1401
    115  C          3.9350   26.5230   55.5000 C.2   347  PRO347      0.2269
    116  O          4.8680   26.7420   56.2720 O.2   347  PRO347     -0.2865
    117  CB         3.2920   28.9600   55.8020 C.3   347  PRO347      0.0296
    118  CG         1.9090   29.6040   56.1710 C.3   347  PRO347      0.0237
    119  CD         0.8150   28.5570   55.8590 C.3   347  PRO347      0.0939
@<TRIPOS>BOND
     1    76    75    2
     2    73    74    1
     3    75    74    1
     4    75    82   am
     5    74    77    1
     6    77    78    1
     7    84    83    1
     8    84    85    2
     9    83    82    1
    10    83    86    1
    11    78    79    1
    12    86    87    1
    13    87    88    1
    14    79    80   ar
    15    79    81   ar
    16    95    96    2
    17    95    94    1
    18    93    94    1
    19    88    89    1
    20    94    97    1
    21    97    98    1
    22    91    90    1
    23    89    90    2
    24    90    92    1
    25    98    99    1
    26    99   101   ar
    27    99   100   ar
    28    48    46    1
    29    47    46    1
    30    46    43    1
    31    39    40    1
    32    39    38    1
    33    41    40    1
    34    36    35    2
    35    43    42    1
    36    43    44    1
    37    37    38    1
    38    37    34    1
    39    35    42   am
    40    35    34    1
    41    12    13    1
    42    12     9    1
    43    45    44    2
    44    13    14    1
    45    44    49   am
    46    14     8    1
    47    34    33    1
    48     9     8    1
    49     9    10    1
    50    23    22    1
    51    49    50    1
    52    33    31   am
    53    15    10   am
    54    15    16    1
    55    10    11    2
    56    59    60    2
    57    59    58    1
    58    65    66    1
    59    22    21    1
    60    20    21    1
    61    20    19    1
    62    50    51    1
    63    50    53    1
    64    67    68    2
    65    67    66    1
    66    32    31    2
    67    31    30    1
    68    51    57   am
    69    51    52    2
    70    57    58    1
    71    64    62    1
    72    16    19    1
    73    16    17    1
    74    66    69    1
    75    58    61    1
    76    61    62    1
    77    62    63    1
    78    54    53    1
    79    54    55    1
    80    24    17   am
    81    24    25    1
    82    30    29    1
    83    29    26   am
    84    17    18    2
    85    69    70    1
    86    56    55    1
    87    28    25    1
    88    25    26    1
    89    26    27    2
    90    70    72   am
    91    70    71    2
    92     7     5    1
    93     5     6    1
    94     5     2    1
    95     4     3    2
    96     3     2    1
    97     2     1    1
    98   114   115    1
    99   114   117    1
   100   114   113    1
   101   110   108   ar
   102   110   112   ar
   103   115   116    2
   104   108   107   ar
   105   117   118    1
   106   119   113    1
   107   119   118    1
   108   113   104   am
   109   112   111   ar
   110   107   106    1
   111   107   109   ar
   112   106   103    1
   113   104   103    1
   114   104   105    2
   115   103   102    1
   116   111   109   ar
