@<TRIPOS>MOLECULE
tmp/1xpoG00.pdb
 159 152 0 0 0
SMALL
GASTEIGER

@<TRIPOS>ATOM
      1  N        -15.1780  -18.4580   -1.8430 N.3    58  LEU58      -0.1245
      2  CA       -13.8730  -17.8830   -2.1740 C.3    58  LEU58       0.1561
      3  C        -13.8540  -16.3540   -2.1000 C.2    58  LEU58       0.2260
      4  O        -13.9020  -15.7780   -1.0110 O.2    58  LEU58      -0.2867
      5  CB       -13.4000  -18.3670   -3.5580 C.3    58  LEU58       0.0270
      6  CG       -12.6810  -19.7170   -3.7140 C.3    58  LEU58       0.0019
      7  CD1      -11.4100  -19.7900   -2.8640 C.3    58  LEU58       0.0001
      8  CD2      -13.6000  -20.9010   -3.4210 C.3    58  LEU58       0.0001
      9  N        -14.5010  -14.4870   -5.6080 N.3    60  ASP60      -0.1239
     10  CA       -15.1880  -14.0840   -6.8340 C.3    60  ASP60       0.1674
     11  C        -16.7070  -14.1850   -6.7070 C.2    60  ASP60       0.2266
     12  O        -17.4260  -13.2360   -7.0310 O.2    60  ASP60      -0.2867
     13  CB       -14.6950  -14.9060   -8.0290 C.3    60  ASP60       0.1410
     14  CG       -13.2510  -14.6050   -8.3900 C.2    60  ASP60       0.3668
     15  OD1      -12.3500  -14.9410   -7.5920 O.co2  60  ASP60      -0.2456
     16  OD2      -12.9220  -14.0440   -9.4580 O.co2  60  ASP60      -0.2456
     17  N        -18.1590  -17.9410   -6.1080 N.3    62  PHE62      -0.1241
     18  CA       -18.4160  -19.3600   -5.8530 C.3    62  PHE62       0.1605
     19  C        -17.7450  -19.8600   -4.5710 C.2    62  PHE62       0.2264
     20  O        -17.0630  -19.1010   -3.8780 O.2    62  PHE62      -0.2867
     21  CB       -17.9840  -20.2160   -7.0530 C.3    62  PHE62       0.0534
     22  CG       -16.5610  -19.9850   -7.4880 C.ar   62  PHE62      -0.0203
     23  CD1      -15.4970  -20.5350   -6.7750 C.ar   62  PHE62      -0.0042
     24  CD2      -16.2830  -19.2270   -8.6230 C.ar   62  PHE62      -0.0042
     25  CE1      -14.1830  -20.3230   -7.1770 C.ar   62  PHE62      -0.0003
     26  CE2      -14.9700  -19.0110   -9.0340 C.ar   62  PHE62      -0.0003
     27  CZ       -13.9190  -19.5590   -8.3070 C.ar   62  PHE62      -0.0000
     28  N        -16.2050  -23.8960   -2.8860 N.3    64  PHE64      -0.1241
     29  CA       -16.0610  -25.3520   -2.9400 C.3    64  PHE64       0.1605
     30  C        -16.5110  -26.0330   -1.6520 C.2    64  PHE64       0.2264
     31  O        -16.6850  -25.3820   -0.6190 O.2    64  PHE64      -0.2867
     32  CB       -14.6090  -25.7370   -3.2330 C.3    64  PHE64       0.0534
     33  CG       -14.1560  -25.3900   -4.6170 C.ar   64  PHE64      -0.0203
     34  CD1      -14.4590  -26.2190   -5.6900 C.ar   64  PHE64      -0.0042
     35  CD2      -13.4130  -24.2400   -4.8490 C.ar   64  PHE64      -0.0042
     36  CE1      -14.0370  -25.9030   -6.9710 C.ar   64  PHE64      -0.0003
     37  CE2      -12.9870  -23.9140   -6.1300 C.ar   64  PHE64      -0.0003
     38  CZ       -13.2990  -24.7490   -7.1940 C.ar   64  PHE64      -0.0000
     39  N        -15.1720  -28.6870    1.0110 N.3    66  ARG66      -0.1245
     40  CA       -13.8670  -29.1990    1.4200 C.3    66  ARG66       0.1563
     41  C        -13.9800  -30.3450    2.4210 C.2    66  ARG66       0.2260
     42  O        -14.9370  -30.4200    3.1950 O.2    66  ARG66      -0.2867
     43  CB       -12.9930  -28.0740    1.9890 C.3    66  ARG66       0.0307
     44  CG       -13.3840  -26.6750    1.5180 C.3    66  ARG66       0.0489
     45  CD       -12.2560  -25.8860    0.8790 C.3    66  ARG66       0.2205
     46  NE       -12.0500  -26.2720   -0.5160 N.pl3  66  ARG66      -0.0865
     47  CZ       -11.3870  -25.5450   -1.4110 C.cat  66  ARG66       0.5346
     48  NH1      -10.8550  -24.3780   -1.0710 N.pl3  66  ARG66       0.1354
     49  NH2      -11.2560  -25.9880   -2.6550 N.pl3  66  ARG66       0.1354
     50  N         -7.2430  -28.3990   -0.1010 N.3    74  ALA74      -0.1245
     51  CA        -7.9090  -28.3700   -1.4000 C.3    74  ALA74       0.1562
     52  C         -7.2090  -29.2460   -2.4350 C.2    74  ALA74       0.2260
     53  O         -5.9920  -29.1640   -2.6130 O.2    74  ALA74      -0.2867
     54  CB        -8.0250  -26.9390   -1.9030 C.3    74  ALA74       0.0290
     55  N        -17.5770  -28.7090   -6.4260 N.3    80  TYR80      -0.1241
     56  CA       -17.8360  -27.3460   -6.8790 C.3    80  TYR80       0.1605
     57  C        -19.2810  -26.9490   -6.6020 C.2    80  TYR80       0.2264
     58  O        -20.2050  -27.7370   -6.8210 O.2    80  TYR80      -0.2867
     59  CB       -17.5350  -27.2050   -8.3770 C.3    80  TYR80       0.0534
     60  CG       -17.6840  -25.7890   -8.9010 C.ar   80  TYR80      -0.0201
     61  CD1      -16.6000  -24.9150   -8.9160 C.ar   80  TYR80      -0.0009
     62  CD2      -18.9120  -25.3220   -9.3730 C.ar   80  TYR80      -0.0009
     63  CE1      -16.7300  -23.6140   -9.3880 C.ar   80  TYR80       0.0417
     64  CE2      -19.0540  -24.0220   -9.8430 C.ar   80  TYR80       0.0417
     65  CZ       -17.9590  -23.1760   -9.8490 C.ar   80  TYR80       0.1957
     66  OH       -18.0870  -21.8890  -10.3140 O.3    80  TYR80      -0.2866
     67  N        -21.8900  -23.7770   -7.6000 N.3    82  SER82      -0.1203
     68  CA       -22.1330  -22.6000   -8.4350 C.3    82  SER82       0.2005
     69  C        -22.6300  -21.4130   -7.6010 C.2    82  SER82       0.2461
     70  O        -23.3420  -21.6080   -6.6150 O.2    82  SER82      -0.2732
     71  CB       -23.1470  -22.9380   -9.5340 C.3    82  SER82       0.2103
     72  OG       -23.3700  -21.8360  -10.3960 O.3    82  SER82      -0.2182
     73  N        -22.2380  -20.1930   -7.9850 N.am   83  PRO83      -0.2717
     74  CA       -22.7490  -18.9710   -7.3490 C.3    83  PRO83       0.1536
     75  C        -24.2760  -18.9260   -7.2420 C.2    83  PRO83       0.2599
     76  O        -24.8020  -18.4300   -6.2450 O.2    83  PRO83      -0.2715
     77  CB       -22.2520  -17.8630   -8.2800 C.3    83  PRO83       0.0310
     78  CG       -21.0070  -18.4110   -8.8740 C.3    83  PRO83       0.0237
     79  CD       -21.2390  -19.8860   -9.0290 C.3    83  PRO83       0.0939
     80  N        -24.9700  -19.4450   -8.2550 N.am   84  SER84      -0.1936
     81  CA       -26.4350  -19.4950   -8.2660 C.3    84  SER84       0.2055
     82  C        -26.9980  -20.4200   -7.1830 C.2    84  SER84       0.2642
     83  O        -28.1260  -20.2330   -6.7220 O.2    84  SER84      -0.2714
     84  CB       -26.9490  -19.9260   -9.6440 C.3    84  SER84       0.2130
     85  OG       -26.5500  -21.2520   -9.9490 O.3    84  SER84      -0.2179
     86  N        -26.2050  -21.4160   -6.7890 N.am   85  GLN85      -0.1976
     87  CA       -26.5750  -22.3270   -5.7040 C.3    85  GLN85       0.1601
     88  C        -26.3070  -21.7020   -4.3330 C.2    85  GLN85       0.2287
     89  O        -26.8130  -22.1800   -3.3160 O.2    85  GLN85      -0.2864
     90  CB       -25.8380  -23.6610   -5.8450 C.3    85  GLN85       0.0394
     91  CG       -26.3150  -24.5200   -7.0100 C.3    85  GLN85       0.0908
     92  CD       -25.4230  -25.7220   -7.2550 C.2    85  GLN85       0.2608
     93  OE1      -24.2670  -25.5760   -7.6540 O.2    85  GLN85      -0.2717
     94  NE2      -25.9610  -26.9160   -7.0280 N.am   85  GLN85      -0.0878
     95  N        -22.1480  -34.4640   -9.3270 N.3   102  ARG102     -0.1245
     96  CA       -22.0670  -34.8270  -10.7450 C.3   102  ARG102      0.1563
     97  C        -20.6660  -34.6110  -11.3340 C.2   102  ARG102      0.2260
     98  O        -19.9600  -33.6820  -10.9340 O.2   102  ARG102     -0.2867
     99  CB       -23.1240  -34.0720  -11.5670 C.3   102  ARG102      0.0307
    100  CG       -22.9300  -32.5610  -11.6460 C.3   102  ARG102      0.0489
    101  CD       -23.7260  -31.8960  -12.7560 C.3   102  ARG102      0.2205
    102  NE       -23.3730  -30.4880  -12.9210 N.pl3 102  ARG102     -0.0865
    103  CZ       -22.4460  -30.0380  -13.7600 C.cat 102  ARG102      0.5346
    104  NH1      -21.7610  -30.8810  -14.5230 N.pl3 102  ARG102      0.1354
    105  NH2      -22.2010  -28.7380  -13.8370 N.pl3 102  ARG102      0.1354
    106  N        -18.2730  -31.4200  -16.9000 N.3   105  LYS105     -0.1245
    107  CA       -18.6780  -31.4330  -18.3050 C.3   105  LYS105      0.1561
    108  C        -17.4530  -31.4590  -19.2190 C.2   105  LYS105      0.2260
    109  O        -16.9100  -32.5310  -19.5050 O.2   105  LYS105     -0.2867
    110  CB       -19.5790  -30.2330  -18.6240 C.3   105  LYS105      0.0271
    111  CG       -20.9300  -30.2570  -17.9210 C.3   105  LYS105      0.0035
    112  CD       -21.7020  -28.9680  -18.1680 C.3   105  LYS105      0.0206
    113  CE       -22.9150  -28.8550  -17.2540 C.3   105  LYS105      0.1093
    114  NZ       -23.9950  -29.8200  -17.6080 N.3   105  LYS105     -0.1314
    115  N        -14.7730  -27.8090  -16.7680 N.3   108  GLU108     -0.1231
    116  CA       -15.1470  -27.4820  -15.3880 C.3   108  GLU108      0.1699
    117  C        -14.0450  -27.8510  -14.3930 C.2   108  GLU108      0.2592
    118  O        -13.7300  -27.0700  -13.4900 O.2   108  GLU108     -0.2718
    119  CB       -16.4610  -28.1710  -15.0030 C.3   108  GLU108      0.0402
    120  CG       -17.6920  -27.6150  -15.7040 C.3   108  GLU108      0.1161
    121  CD       -18.9880  -28.1970  -15.1680 C.2   108  GLU108      0.3649
    122  OE1      -19.1400  -29.4370  -15.1750 O.co2 108  GLU108     -0.2457
    123  OE2      -19.8610  -27.4100  -14.7460 O.co2 108  GLU108     -0.2457
    124  N        -13.4820  -29.0490  -14.5630 N.am  109  ARG109     -0.1966
    125  CA       -12.3370  -29.5400  -13.7720 C.3   109  ARG109      0.1729
    126  C        -12.6420  -29.8020  -12.2920 C.2   109  ARG109      0.2616
    127  O        -11.7800  -30.2830  -11.5510 O.2   109  ARG109     -0.2715
    128  CB       -11.1220  -28.6130  -13.9210 C.3   109  ARG109      0.0348
    129  CG       -10.5690  -28.5360  -15.3340 C.3   109  ARG109      0.0492
    130  CD        -9.4660  -27.5100  -15.5150 C.3   109  ARG109      0.2205
    131  NE        -9.0180  -27.4340  -16.9040 N.pl3 109  ARG109     -0.0865
    132  CZ        -8.0110  -26.6790  -17.3300 C.cat 109  ARG109      0.5346
    133  NH1       -7.3280  -25.9210  -16.4800 N.pl3 109  ARG109      0.1354
    134  NH2       -7.6820  -26.6810  -18.6150 N.pl3 109  ARG109      0.1354
    135  N        -13.8660  -29.4940  -11.8720 N.am  110  TYR110     -0.1974
    136  CA       -14.2870  -29.7010  -10.4910 C.3   110  TYR110      0.1639
    137  C        -15.6930  -30.2950  -10.4390 C.2   110  TYR110      0.2290
    138  O        -16.6490  -29.6940  -10.9400 O.2   110  TYR110     -0.2864
    139  CB       -14.2360  -28.3820   -9.7090 C.3   110  TYR110      0.0560
    140  CG       -12.8470  -27.7920   -9.5580 C.ar  110  TYR110     -0.0198
    141  CD1      -11.9970  -28.2090   -8.5330 C.ar  110  TYR110     -0.0009
    142  CD2      -12.3890  -26.8050  -10.4330 C.ar  110  TYR110     -0.0009
    143  CE1      -10.7240  -27.6670   -8.3850 C.ar  110  TYR110      0.0417
    144  CE2      -11.1150  -26.2560  -10.2950 C.ar  110  TYR110      0.0417
    145  CZ       -10.2900  -26.6920   -9.2680 C.ar  110  TYR110      0.1957
    146  OH        -9.0340  -26.1560   -9.1240 O.3   110  TYR110     -0.2866
    147  N        -19.1700  -30.9230   -9.8530 N.3   112  ALA112     -0.1231
    148  CA       -20.1720  -29.9270   -9.4800 C.3   112  ALA112      0.1694
    149  C        -21.2810  -30.5020   -8.6000 C.2   112  ALA112      0.2591
    150  O        -21.4840  -31.7170   -8.5510 O.2   112  ALA112     -0.2718
    151  CB       -20.7580  -29.2770  -10.7250 C.3   112  ALA112      0.0304
    152  N        -21.9900  -29.6130   -7.9050 N.am  113  LEU113     -0.1980
    153  CA       -23.1070  -29.9960   -7.0430 C.3   113  LEU113      0.1596
    154  C        -24.4360  -29.8570   -7.7840 C.2   113  LEU113      0.2287
    155  O        -24.6660  -28.8670   -8.4850 O.2   113  LEU113     -0.2864
    156  CB       -23.1150  -29.1360   -5.7740 C.3   113  LEU113      0.0297
    157  CG       -24.1070  -29.4770   -4.6570 C.3   113  LEU113      0.0022
    158  CD1      -23.5620  -30.5740   -3.7520 C.3   113  LEU113      0.0001
    159  CD2      -24.4330  -28.2320   -3.8490 C.3   113  LEU113      0.0001
@<TRIPOS>BOND
     1   109   108    2
     2   108   107    1
     3   110   107    1
     4   110   111    1
     5   134   132    1
     6   107   106    1
     7   112   111    1
     8   112   113    1
     9   114   113    1
    10   132   131    2
    11   132   133    1
    12   131   130    1
    13   115   116    1
    14   120   121    1
    15   120   119    1
    16   130   129    1
    17   116   119    1
    18   116   117    1
    19   129   128    1
    20   122   121   ar
    21   121   123   ar
    22   124   117   am
    23   124   125    1
    24   104   103    1
    25   117   118    2
    26   128   125    1
    27   105   103    1
    28   125   126    1
    29   103   102    2
    30   102   101    1
    31   101   100    1
    32   126   135   am
    33   126   127    2
    34   135   136    1
    35   100    99    1
    36    99    96    1
    37    97    98    2
    38    97    96    1
    39   138   137    2
    40    96    95    1
    41   151   148    1
    42   136   137    1
    43   136   139    1
    44   142   144   ar
    45   142   140   ar
    46    72    71    1
    47    66    65    1
    48   144   145   ar
    49    85    84    1
    50   147   148    1
    51    65    64   ar
    52    65    63   ar
    53    64    62   ar
    54   139   140    1
    55    84    81    1
    56   140   141   ar
    57    71    68    1
    58   148   149    1
    59    16    14   ar
    60    63    61   ar
    61    62    60   ar
    62   145   146    1
    63   145   143   ar
    64    26    24   ar
    65    26    27   ar
    66    79    78    1
    67    79    73    1
    68    61    60   ar
    69    60    59    1
    70    78    77    1
    71    24    22   ar
    72   149   150    2
    73   149   152   am
    74   141   143   ar
    75   155   154    2
    76    68    69    1
    77    68    67    1
    78    14    13    1
    79    14    15   ar
    80    59    56    1
    81    27    25   ar
    82    77    74    1
    83    81    80    1
    84    81    82    1
    85    80    75   am
    86    13    10    1
    87    73    69   am
    88    73    74    1
    89   152   153    1
    90   154   153    1
    91    93    92    2
    92    69    70    2
    93    22    21    1
    94    22    23   ar
    95    74    75    1
    96    92    94   am
    97    92    91    1
    98    75    76    2
    99    38    36   ar
   100    38    37   ar
   101    82    86   am
   102    82    83    2
   103    25    23   ar
   104    21    18    1
   105   153   156    1
   106    12    11    2
   107    91    90    1
   108    36    34   ar
   109    56    57    1
   110    56    55    1
   111    10    11    1
   112    10     9    1
   113    58    57    2
   114    86    87    1
   115    37    35   ar
   116    17    18    1
   117    18    19    1
   118    90    87    1
   119   156   157    1
   120    87    88    1
   121    34    33   ar
   122    35    33   ar
   123   157   159    1
   124   157   158    1
   125    33    32    1
   126    19    20    2
   127    88    89    2
   128     6     5    1
   129     6     8    1
   130     6     7    1
   131     5     2    1
   132    32    29    1
   133    29    28    1
   134    29    30    1
   135    49    47    1
   136    53    52    2
   137    52    51    1
   138     2     3    1
   139     2     1    1
   140     3     4    2
   141    54    51    1
   142    30    31    2
   143    47    48    1
   144    47    46    2
   145    51    50    1
   146    46    45    1
   147    45    44    1
   148    39    40    1
   149    40    43    1
   150    40    41    1
   151    44    43    1
   152    41    42    2
