@<TRIPOS>MOLECULE
tmp/1xpqA00.pdb
 164 160 0 0 0
SMALL
GASTEIGER

@<TRIPOS>ATOM
      1  N         27.6450    1.3110   18.8190 N.3    60  TRP60      -0.1241
      2  CA        26.2380    1.5600   18.5430 C.3    60  TRP60       0.1605
      3  C         25.2080    0.6520   19.1720 C.2    60  TRP60       0.2264
      4  O         25.4430   -0.5330   19.4220 O.2    60  TRP60      -0.2867
      5  CB        25.9810    1.5360   17.0390 C.3    60  TRP60       0.0550
      6  CG        26.5210    2.6980   16.3210 C.ar   60  TRP60       0.0003
      7  CD1       26.1100    3.9970   16.4300 C.ar   60  TRP60       0.0946
      8  CD2       27.5860    2.6880   15.3730 C.ar   60  TRP60       0.0152
      9  NE1       26.8610    4.8010   15.6040 N.ar   60  TRP60      -0.2442
     10  CE2       27.7760    4.0230   14.9440 C.ar   60  TRP60       0.0810
     11  CE3       28.4010    1.6810   14.8430 C.ar   60  TRP60       0.0012
     12  CZ2       28.7500    4.3760   14.0120 C.ar   60  TRP60       0.0191
     13  CZ3       29.3670    2.0310   13.9180 C.ar   60  TRP60       0.0001
     14  CH2       29.5340    3.3720   13.5120 C.ar   60  TRP60       0.0015
     15  N         21.8820   -0.9140   18.2430 N.3    62  HIS62      -0.1241
     16  CA        21.1300   -1.1950   17.0260 C.3    62  HIS62       0.1621
     17  C         19.6690   -1.5250   17.2900 C.2    62  HIS62       0.2264
     18  O         19.2850   -1.8490   18.4140 O.2    62  HIS62      -0.2867
     19  CB        21.8130   -2.3120   16.2570 C.3    62  HIS62       0.0745
     20  CG        23.1440   -1.9130   15.7070 C.ar   62  HIS62       0.0817
     21  ND1       23.2810   -1.1390   14.5750 N.ar   62  HIS62      -0.2268
     22  CD2       24.3980   -2.1160   16.1730 C.ar   62  HIS62       0.1154
     23  CE1       24.5610   -0.8820   14.3660 C.ar   62  HIS62       0.1986
     24  NE2       25.2600   -1.4640   15.3220 N.ar   62  HIS62      -0.2212
     25  N         22.3610    8.6990   12.9160 N.3    89  ASP89      -0.1239
     26  CA        22.1010    8.2040   11.5660 C.3    89  ASP89       0.1674
     27  C         22.0240    9.4360   10.7070 C.2    89  ASP89       0.2266
     28  O         21.3320   10.3920   11.0400 O.2    89  ASP89      -0.2867
     29  CB        20.7790    7.4460   11.4810 C.3    89  ASP89       0.1410
     30  CG        20.9130    5.9940   11.8870 C.2    89  ASP89       0.3668
     31  OD1       21.7870    5.2940   11.3340 O.co2  89  ASP89      -0.2456
     32  OD2       20.1330    5.5550   12.7480 O.co2  89  ASP89      -0.2456
     33  N         24.2500    9.2530    4.2010 N.3    92  PHE92      -0.1241
     34  CA        25.6050    8.9350    3.7930 C.3    92  PHE92       0.1605
     35  C         26.1550    9.8040    2.6810 C.2    92  PHE92       0.2264
     36  O         25.4270   10.2370    1.8000 O.2    92  PHE92      -0.2867
     37  CB        25.6890    7.4720    3.3660 C.3    92  PHE92       0.0534
     38  CG        25.5500    6.5140    4.5040 C.ar   92  PHE92      -0.0203
     39  CD1       24.3820    6.4800    5.2640 C.ar   92  PHE92      -0.0042
     40  CD2       26.5980    5.6600    4.8440 C.ar   92  PHE92      -0.0042
     41  CE1       24.2610    5.6120    6.3430 C.ar   92  PHE92      -0.0003
     42  CE2       26.4870    4.7860    5.9230 C.ar   92  PHE92      -0.0003
     43  CZ        25.3180    4.7640    6.6710 C.ar   92  PHE92      -0.0000
     44  N         28.8530   -1.3610    1.2100 N.3   165  TYR165     -0.1241
     45  CA        28.9680   -0.7990    2.5410 C.3   165  TYR165      0.1605
     46  C         28.4060   -1.7730    3.5530 C.2   165  TYR165      0.2264
     47  O         28.6420   -1.6220    4.7460 O.2   165  TYR165     -0.2867
     48  CB        28.2470    0.5520    2.6420 C.3   165  TYR165      0.0534
     49  CG        26.7440    0.5030    2.4520 C.ar  165  TYR165     -0.0201
     50  CD1       25.8930    0.1790    3.5080 C.ar  165  TYR165     -0.0009
     51  CD2       26.1710    0.8020    1.2110 C.ar  165  TYR165     -0.0009
     52  CE1       24.5030    0.1580    3.3330 C.ar  165  TYR165      0.0417
     53  CE2       24.7940    0.7830    1.0200 C.ar  165  TYR165      0.0417
     54  CZ        23.9590    0.4640    2.0840 C.ar  165  TYR165      0.1957
     55  OH        22.5870    0.4820    1.9040 O.3   165  TYR165     -0.2866
     56  N         30.7780   -3.5900    6.0800 N.3   168  LEU168     -0.1231
     57  CA        31.1090   -3.0930    7.3980 C.3   168  LEU168      0.1693
     58  C         30.0160   -3.4660    8.3880 C.2   168  LEU168      0.2592
     59  O         30.2180   -3.3720    9.6010 O.2   168  LEU168     -0.2718
     60  CB        31.3360   -1.5780    7.3630 C.3   168  LEU168      0.0284
     61  CG        32.5520   -1.0840    6.5610 C.3   168  LEU168      0.0019
     62  CD1       33.7970   -1.8470    6.9970 C.3   168  LEU168      0.0001
     63  CD2       32.3160   -1.2730    5.0580 C.3   168  LEU168      0.0001
     64  N         28.8580   -3.8910    7.8830 N.am  169  TRP169     -0.1976
     65  CA        27.7880   -4.3220    8.7810 C.3   169  TRP169      0.1640
     66  C         28.0610   -5.7540    9.2390 C.2   169  TRP169      0.2290
     67  O         27.6850   -6.1480   10.3450 O.2   169  TRP169     -0.2864
     68  CB        26.4060   -4.2400    8.1180 C.3   169  TRP169      0.0576
     69  CG        25.7510   -2.8860    8.2780 C.ar  169  TRP169      0.0006
     70  CD1       25.8650   -1.8070    7.4410 C.ar  169  TRP169      0.0946
     71  CD2       24.9340   -2.4540    9.3750 C.ar  169  TRP169      0.0152
     72  NE1       25.1710   -0.7330    7.9510 N.ar  169  TRP169     -0.2442
     73  CE2       24.5920   -1.1010    9.1370 C.ar  169  TRP169      0.0810
     74  CE3       24.4600   -3.0750   10.5360 C.ar  169  TRP169      0.0012
     75  CZ2       23.7950   -0.3590   10.0240 C.ar  169  TRP169      0.0191
     76  CZ3       23.6700   -2.3360   11.4190 C.ar  169  TRP169      0.0001
     77  CH2       23.3470   -0.9920   11.1560 C.ar  169  TRP169      0.0015
     78  N         17.1850   -3.7890    9.8140 N.3   186  HIS186     -0.1241
     79  CA        17.4490   -3.2170   11.1380 C.3   186  HIS186      0.1621
     80  C         16.2100   -2.5420   11.7010 C.2   186  HIS186      0.2264
     81  O         15.6660   -1.6320   11.0820 O.2   186  HIS186     -0.2867
     82  CB        18.5590   -2.1760   11.0630 C.3   186  HIS186      0.0745
     83  CG        19.6900   -2.5580   10.1670 C.ar  186  HIS186      0.0817
     84  ND1       19.6840   -2.3030    8.8130 N.ar  186  HIS186     -0.2268
     85  CD2       20.8680   -3.1680   10.4300 C.ar  186  HIS186      0.1154
     86  CE1       20.8140   -2.7340    8.2810 C.ar  186  HIS186      0.1986
     87  NE2       21.5510   -3.2630    9.2410 N.ar  186  HIS186     -0.2212
     88  N         16.4520    3.2680   13.8120 N.3   189  ARG189     -0.1231
     89  CA        17.7290    3.9670   13.7740 C.3   189  ARG189      0.1694
     90  C         18.7320    3.3950   14.7850 C.2   189  ARG189      0.2592
     91  O         18.4040    2.4990   15.5790 O.2   189  ARG189     -0.2718
     92  CB        17.5250    5.4470   14.1000 C.3   189  ARG189      0.0321
     93  CG        16.8730    6.2760   13.0270 C.3   189  ARG189      0.0489
     94  CD        16.6250    7.6720   13.5380 C.3   189  ARG189      0.2205
     95  NE        15.5870    7.6890   14.5670 N.pl3 189  ARG189     -0.0865
     96  CZ        15.3080    8.7430   15.3270 C.cat 189  ARG189      0.5346
     97  NH1       15.9930    9.8660   15.1850 N.pl3 189  ARG189      0.1354
     98  NH2       14.3410    8.6830   16.2210 N.pl3 189  ARG189      0.1354
     99  N         19.9500    3.9340   14.7510 N.am  190  ASN190     -0.1974
    100  CA        21.0130    3.5460   15.6650 C.3   190  ASN190      0.1688
    101  C         21.3050    4.6830   16.6050 C.2   190  ASN190      0.2292
    102  O         21.0930    5.8460   16.2670 O.2   190  ASN190     -0.2864
    103  CB        22.2830    3.2480   14.9190 C.3   190  ASN190      0.1181
    104  CG        22.0610    2.3120   13.7960 C.2   190  ASN190      0.2629
    105  OD1       21.6150    2.7160   12.7240 O.2   190  ASN190     -0.2716
    106  ND2       22.3430    1.0380   14.0260 N.am  190  ASN190     -0.0877
    107  N         35.3300   -7.3860   11.8060 N.3   289  LEU289     -0.1245
    108  CA        35.1900   -5.9470   11.6990 C.3   289  LEU289      0.1561
    109  C         36.2630   -5.3130   12.5840 C.2   289  LEU289      0.2260
    110  O         36.3380   -5.5890   13.7830 O.2   289  LEU289     -0.2867
    111  CB        33.8000   -5.5260   12.1880 C.3   289  LEU289      0.0270
    112  CG        33.4710   -4.0300   12.2070 C.3   289  LEU289      0.0019
    113  CD1       33.3060   -3.5230   10.7890 C.3   289  LEU289      0.0001
    114  CD2       32.1920   -3.7940   12.9890 C.3   289  LEU289      0.0001
    115  N         28.5100   10.4580    8.5200 N.3   307  LYS307     -0.1245
    116  CA        28.5730    9.1800    7.8120 C.3   307  LYS307      0.1561
    117  C         29.1790    9.2930    6.4100 C.2   307  LYS307      0.2260
    118  O         28.5910    9.8890    5.5040 O.2   307  LYS307     -0.2867
    119  CB        27.1700    8.5720    7.7240 C.3   307  LYS307      0.0271
    120  CG        26.5400    8.3040    9.0780 C.3   307  LYS307      0.0035
    121  CD        27.4430    7.3970    9.9190 C.3   307  LYS307      0.0206
    122  CE        26.9440    7.2620   11.3510 C.3   307  LYS307      0.1093
    123  NZ        27.1240    8.5420   12.0760 N.3   307  LYS307     -0.1314
    124  N         34.0460    2.6200    5.8160 N.3   348  PHE348     -0.1241
    125  CA        33.0810    3.4080    6.5360 C.3   348  PHE348      0.1605
    126  C         33.8600    4.3800    7.4070 C.2   348  PHE348      0.2264
    127  O         34.7750    3.9910    8.1160 O.2   348  PHE348     -0.2867
    128  CB        32.2070    2.4870    7.3870 C.3   348  PHE348      0.0534
    129  CG        31.0640    3.1850    8.0620 C.ar  348  PHE348     -0.0203
    130  CD1       30.1430    3.9180    7.3210 C.ar  348  PHE348     -0.0042
    131  CD2       30.8830    3.0810    9.4340 C.ar  348  PHE348     -0.0042
    132  CE1       29.0520    4.5340    7.9400 C.ar  348  PHE348     -0.0003
    133  CE2       29.7970    3.6890   10.0610 C.ar  348  PHE348     -0.0003
    134  CZ        28.8790    4.4170    9.3130 C.ar  348  PHE348     -0.0000
    135  N         35.6950    2.2220    9.9820 N.3   364  LEU364     -0.1245
    136  CA        35.3730    0.8170   10.1350 C.3   364  LEU364      0.1561
    137  C         36.0070    0.0960    8.9610 C.2   364  LEU364      0.2260
    138  O         36.2380    0.7000    7.9090 O.2   364  LEU364     -0.2867
    139  CB        33.8660    0.6000   10.1240 C.3   364  LEU364      0.0270
    140  CG        33.2010    0.4300   11.4820 C.3   364  LEU364      0.0019
    141  CD1       33.3210    1.6940   12.3070 C.3   364  LEU364      0.0001
    142  CD2       31.7520    0.0630   11.2560 C.3   364  LEU364      0.0001
    143  N         32.7890  -10.6490   15.8650 N.3   439  TYR439     -0.1241
    144  CA        31.6130  -11.3240   16.4050 C.3   439  TYR439      0.1605
    145  C         31.0310  -12.4200   15.5150 C.2   439  TYR439      0.2264
    146  O         30.0240  -13.0320   15.8560 O.2   439  TYR439     -0.2867
    147  CB        30.5410  -10.2880   16.7170 C.3   439  TYR439      0.0534
    148  CG        30.2880   -9.3080   15.5970 C.ar  439  TYR439     -0.0201
    149  CD1       29.4770   -9.6460   14.5140 C.ar  439  TYR439     -0.0009
    150  CD2       30.8330   -8.0240   15.6350 C.ar  439  TYR439     -0.0009
    151  CE1       29.2030   -8.7220   13.4910 C.ar  439  TYR439      0.0417
    152  CE2       30.5690   -7.0900   14.6200 C.ar  439  TYR439      0.0417
    153  CZ        29.7510   -7.4470   13.5540 C.ar  439  TYR439      0.1957
    154  OH        29.4700   -6.5290   12.5670 O.3   439  TYR439     -0.2866
    155  N         25.0630  -11.3390   17.5810 N.3   472  GLY472     -0.1210
    156  CA        26.2640  -10.5670   17.3000 C.3   472  GLY472      0.1956
    157  C         26.2560   -9.1440   17.8490 C.2   472  GLY472      0.2612
    158  O         27.2040   -8.3780   17.6390 O.2   472  GLY472     -0.2717
    159  N         25.1990   -8.7900   18.5740 N.am  473  CYS473     -0.1970
    160  CA        25.0690   -7.4450   19.1260 C.3   473  CYS473      0.1712
    161  C         25.2330   -7.3770   20.6440 C.2   473  CYS473      0.2296
    162  O         25.0120   -8.3530   21.3570 O.2   473  CYS473     -0.2864
    163  CB        23.7120   -6.8450   18.7160 C.3   473  CYS473      0.0983
    164  SG        23.4040   -6.8040   16.9030 S.3   473  CYS473     -0.0798
@<TRIPOS>BOND
     1    53    51   ar
     2    53    54   ar
     3    44    45    1
     4    51    49   ar
     5    36    35    2
     6    55    54    1
     7    54    52   ar
     8    49    48    1
     9    49    50   ar
    10    45    48    1
    11    45    46    1
    12    35    34    1
    13    52    50   ar
    14    37    34    1
    15    37    38    1
    16    46    47    2
    17    34    33    1
    18    38    40   ar
    19    38    39   ar
    20    40    42   ar
    21    63    61    1
    22    39    41   ar
    23   118   117    2
    24   124   125    1
    25    42    43   ar
    26    56    57    1
    27    41    43   ar
    28   117   116    1
    29   125   128    1
    30   125   126    1
    31    61    62    1
    32    61    60    1
    33   130   132   ar
    34   130   129   ar
    35    60    57    1
    36   128   129    1
    37    57    58    1
    38   126   127    2
    39    70    72   ar
    40    70    69   ar
    41   119   116    1
    42   119   120    1
    43   116   115    1
    44    64    58   am
    45    64    65    1
    46   138   137    2
    47   132   134   ar
    48    72    73   ar
    49   129   131   ar
    50    68    69    1
    51    68    65    1
    52    69    71   ar
    53    86    84   ar
    54    86    87   ar
    55    58    59    2
    56    65    66    1
    57    84    83   ar
    58   137   136    1
    59   120   121    1
    60    73    71   ar
    61    73    75   ar
    62    66    67    2
    63    87    85   ar
    64   134   133   ar
    65    71    74   ar
    66   131   133   ar
    67    78    79    1
    68   121   122    1
    69   135   136    1
    70    75    77   ar
    71   139   136    1
    72   139   140    1
    73    83    85   ar
    74    83    82    1
    75    74    76   ar
    76    27    28    2
    77    27    26    1
    78   113   112    1
    79    82    79    1
    80    81    80    2
    81    79    80    1
    82    77    76   ar
    83   142   140    1
    84    31    30   ar
    85   122   123    1
    86    29    26    1
    87    29    30    1
    88   140   141    1
    89    26    25    1
    90   108   107    1
    91   108   111    1
    92   108   109    1
    93    30    32   ar
    94   111   112    1
    95   112   114    1
    96   154   153    1
    97   109   110    2
    98   105   104    2
    99    93    94    1
   100    93    92    1
   101   151   153   ar
   102   151   149   ar
   103    14    13   ar
   104    14    12   ar
   105    94    95    1
   106   153   152   ar
   107    89    88    1
   108    89    92    1
   109    89    90    1
   110   104   106   am
   111   104   103    1
   112    13    11   ar
   113    12    10   ar
   114    23    21   ar
   115    23    24   ar
   116   149   148   ar
   117    95    96    2
   118    21    20   ar
   119   152   150   ar
   120    99    90   am
   121    99   100    1
   122    90    91    2
   123    11     8   ar
   124   103   100    1
   125    10     8   ar
   126    10     9   ar
   127    97    96    1
   128    24    22   ar
   129    96    98    1
   130     8     6   ar
   131   145   146    2
   132   145   144    1
   133   148   150   ar
   134   148   147    1
   135     9     7   ar
   136   100   101    1
   137    20    22   ar
   138    20    19    1
   139   143   144    1
   140    19    16    1
   141   102   101    2
   142     6     7   ar
   143     6     5    1
   144   144   147    1
   145   164   163    1
   146    16    17    1
   147    16    15    1
   148     5     2    1
   149    17    18    2
   150   156   155    1
   151   156   157    1
   152   158   157    2
   153   157   159   am
   154     2     1    1
   155     2     3    1
   156   159   160    1
   157   163   160    1
   158   160   161    1
   159     3     4    2
   160   161   162    2
