@<TRIPOS>MOLECULE
tmp/1xpuI02.pdb
 119 112 0 0 0
SMALL
GASTEIGER

@<TRIPOS>ATOM
      1  N        -16.5300    4.8490   49.7220 N.3   174  PRO174     -0.2102
      2  CA       -17.8570    4.2340   49.6130 C.3   174  PRO174      0.1504
      3  C        -18.4330    3.8690   50.9790 C.2   174  PRO174      0.2575
      4  O        -17.6840    3.4660   51.8740 O.2   174  PRO174     -0.2718
      5  CB       -17.5920    2.9630   48.7960 C.3   174  PRO174      0.0282
      6  CG       -16.2440    3.1660   48.1880 C.3   174  PRO174      0.0208
      7  CD       -15.4800    3.9690   49.1810 C.3   174  PRO174      0.0893
      8  N        -19.7510    4.0110   51.1240 N.am  175  LYS175     -0.1980
      9  CA       -20.4550    3.7660   52.3930 C.3   175  LYS175      0.1596
     10  C        -19.8150    4.5290   53.5570 C.2   175  LYS175      0.2287
     11  O        -19.2170    3.9330   54.4560 O.2   175  LYS175     -0.2864
     12  CB       -20.5400    2.2620   52.7000 C.3   175  LYS175      0.0298
     13  CG       -21.5190    1.5040   51.8190 C.3   175  LYS175      0.0038
     14  CD       -21.4500    0.0030   52.0460 C.3   175  LYS175      0.0206
     15  CE       -22.4840   -0.7250   51.1970 C.3   175  LYS175      0.1093
     16  NZ       -22.3600   -2.2070   51.3030 N.3   175  LYS175     -0.1314
     17  N        -22.0990    9.9730   52.4390 N.3   178  LYS178     -0.1231
     18  CA       -22.0010   10.9950   51.4000 C.3   178  LYS178      0.1693
     19  C        -23.3830   11.4320   50.9040 C.2   178  LYS178      0.2592
     20  O        -23.6060   12.6160   50.6390 O.2   178  LYS178     -0.2718
     21  CB       -21.1260   10.4860   50.2490 C.3   178  LYS178      0.0285
     22  CG       -21.3000   11.2070   48.9130 C.3   178  LYS178      0.0035
     23  CD       -20.3160   10.7040   47.8540 C.3   178  LYS178      0.0206
     24  CE       -20.5470    9.2360   47.4810 C.3   178  LYS178      0.1093
     25  NZ       -19.7670    8.2920   48.3380 N.3   178  LYS178     -0.1314
     26  N        -24.3020   10.4740   50.7900 N.am  179  THR179     -0.1953
     27  CA       -25.6780   10.7600   50.3840 C.3   179  THR179      0.1897
     28  C        -26.3990   11.6030   51.4370 C.2   179  THR179      0.2313
     29  O        -27.0400   12.6000   51.1030 O.2   179  THR179     -0.2863
     30  CB       -26.4570    9.4490   50.0900 C.3   179  THR179      0.1794
     31  OG1      -25.8760    8.7900   48.9580 O.3   179  THR179     -0.2208
     32  CG2      -27.8780    9.7480   49.6210 C.3   179  THR179      0.0378
     33  N        -25.3990   12.2380   38.6850 N.3   203  ILE203     -0.1231
     34  CA       -24.8870   11.7910   37.3870 C.3   203  ILE203      0.1692
     35  C        -25.1700   10.3250   37.0530 C.2   203  ILE203      0.2592
     36  O        -25.9170   10.0380   36.1210 O.2   203  ILE203     -0.2718
     37  CB       -23.3720   12.1310   37.2310 C.3   203  ILE203      0.0266
     38  CG1      -23.1510   13.6510   37.1990 C.3   203  ILE203      0.0019
     39  CG2      -22.7790   11.4690   35.9790 C.3   203  ILE203      0.0020
     40  CD1      -23.9000   14.3960   36.0880 C.3   203  ILE203      0.0001
     41  N        -24.5660    9.4010   37.7960 N.am  204  ASP204     -0.1960
     42  CA       -24.6460    7.9830   37.4460 C.3   204  ASP204      0.1840
     43  C        -25.4540    7.2050   38.4860 C.2   204  ASP204      0.2622
     44  O        -25.1360    6.0550   38.8070 O.2   204  ASP204     -0.2715
     45  CB       -23.2350    7.4030   37.3010 C.3   204  ASP204      0.1450
     46  CG       -23.0860    6.5140   36.0810 C.2   204  ASP204      0.3671
     47  OD1      -23.9290    5.6180   35.8810 O.co2 204  ASP204     -0.2456
     48  OD2      -22.1430    6.6330   35.2680 O.co2 204  ASP204     -0.2456
     49  N        -26.5180    7.8360   38.9810 N.am  205  GLU205     -0.1963
     50  CA       -27.2510    7.3700   40.1630 C.3   205  GLU205      0.1733
     51  C        -28.2150    6.2090   39.8890 C.2   205  GLU205      0.2616
     52  O        -28.5060    5.8830   38.7400 O.2   205  GLU205     -0.2715
     53  CB       -28.0070    8.5460   40.8020 C.3   205  GLU205      0.0429
     54  CG       -28.3660    8.3650   42.2750 C.3   205  GLU205      0.1163
     55  CD       -27.3820    9.0270   43.2290 C.2   205  GLU205      0.3649
     56  OE1      -26.1840    9.1380   42.8950 O.co2 205  GLU205     -0.2457
     57  OE2      -27.8150    9.4400   44.3280 O.co2 205  GLU205     -0.2457
     58  N        -28.6890    5.5910   40.9690 N.am  206  ARG206     -0.1977
     59  CA       -29.6780    4.5200   40.9090 C.3   206  ARG206      0.1597
     60  C        -31.0950    5.0970   40.9300 C.2   206  ARG206      0.2287
     61  O        -31.3340    6.1080   41.5890 O.2   206  ARG206     -0.2864
     62  CB       -29.4790    3.5600   42.0880 C.3   206  ARG206      0.0334
     63  CG       -28.0800    2.9550   42.1730 C.3   206  ARG206      0.0492
     64  CD       -27.8610    2.0150   43.3520 C.3   206  ARG206      0.2205
     65  NE       -27.8040    2.7160   44.6350 N.pl3 206  ARG206     -0.0865
     66  CZ       -26.7190    3.3100   45.1270 C.cat 206  ARG206      0.5346
     67  NH1      -25.5820    3.3050   44.4460 N.pl3 206  ARG206      0.1354
     68  NH2      -26.7740    3.9150   46.3060 N.pl3 206  ARG206      0.1354
     69  N        -23.3520   15.3370   42.7400 N.3   259  ASP259     -0.1225
     70  CA       -22.8770   14.0650   43.2580 C.3   259  ASP259      0.1805
     71  C        -22.0290   13.3780   42.2010 C.2   259  ASP259      0.2598
     72  O        -22.4800   13.1640   41.0720 O.2   259  ASP259     -0.2718
     73  CB       -24.0320   13.1620   43.6930 C.3   259  ASP259      0.1424
     74  CG       -23.5780   12.0290   44.6080 C.2   259  ASP259      0.3668
     75  OD1      -22.5140   12.1590   45.2550 O.co2 259  ASP259     -0.2456
     76  OD2      -24.2320   10.9750   44.7550 O.co2 259  ASP259     -0.2456
     77  N        -20.7980   13.0520   42.5890 N.am  260  SER260     -0.1952
     78  CA       -19.7990   12.4170   41.7250 C.3   260  SER260      0.1924
     79  C        -19.4140   13.2420   40.4930 C.2   260  SER260      0.2314
     80  O        -20.0970   13.2150   39.4640 O.2   260  SER260     -0.2863
     81  CB       -20.1950   10.9820   41.3490 C.3   260  SER260      0.2116
     82  OG       -21.4160   10.9480   40.6340 O.3   260  SER260     -0.2180
     83  N        -17.9620   10.5090   38.3230 N.3   263  ARG263     -0.1245
     84  CA       -18.9060    9.8480   37.4260 C.3   263  ARG263      0.1563
     85  C        -19.2310   10.6860   36.1970 C.2   263  ARG263      0.2260
     86  O        -19.5320   10.1400   35.1330 O.2   263  ARG263     -0.2867
     87  CB       -20.1890    9.4630   38.1590 C.3   263  ARG263      0.0307
     88  CG       -20.1040    8.1370   38.8870 C.3   263  ARG263      0.0489
     89  CD       -19.7230    6.9710   37.9870 C.3   263  ARG263      0.2205
     90  NE       -20.1930    5.6930   38.5100 N.pl3 263  ARG263     -0.0865
     91  CZ       -19.5150    4.9310   39.3560 C.cat 263  ARG263      0.5346
     92  NH1      -18.3190    5.3060   39.7960 N.pl3 263  ARG263      0.1354
     93  NH2      -20.0330    3.7830   39.7680 N.pl3 263  ARG263      0.1354
     94  N        -15.4540   10.4710   44.2600 N.3   311  LEU311     -0.1245
     95  CA       -15.5110    9.0970   44.7550 C.3   311  LEU311      0.1561
     96  C        -14.1190    8.4900   44.8380 C.2   311  LEU311      0.2260
     97  O        -13.4220    8.3640   43.8290 O.2   311  LEU311     -0.2867
     98  CB       -16.4150    8.2370   43.8660 C.3   311  LEU311      0.0270
     99  CG       -17.9340    8.2270   44.0720 C.3   311  LEU311      0.0019
    100  CD1      -18.5240    9.6050   44.3720 C.3   311  LEU311      0.0001
    101  CD2      -18.5800    7.6300   42.8400 C.3   311  LEU311      0.0001
    102  N        -12.6450    3.4910   45.5960 N.3   314  THR314     -0.1218
    103  CA       -13.6730    2.7050   44.9200 C.3   314  THR314      0.1862
    104  C        -13.1300    1.3400   44.4970 C.2   314  THR314      0.2287
    105  O        -13.8670    0.3510   44.4530 O.2   314  THR314     -0.2866
    106  CB       -14.2040    3.4830   43.6920 C.3   314  THR314      0.1770
    107  OG1      -14.7790    4.7250   44.1190 O.3   314  THR314     -0.2211
    108  CG2      -15.3800    2.7590   43.0410 C.3   314  THR314      0.0375
    109  N        -13.7050    6.3550   55.8730 N.3   338  ARG338     -0.1245
    110  CA       -14.3080    5.0430   56.0630 C.3   338  ARG338      0.1563
    111  C        -14.2030    4.6080   57.5240 C.2   338  ARG338      0.2260
    112  O        -15.1470    4.0430   58.0790 O.2   338  ARG338     -0.2867
    113  CB       -13.6210    4.0210   55.1570 C.3   338  ARG338      0.0307
    114  CG       -14.2790    2.6500   55.1200 C.3   338  ARG338      0.0489
    115  CD       -15.5120    2.5740   54.2340 C.3   338  ARG338      0.2205
    116  NE       -15.6930    1.2380   53.6680 N.pl3 338  ARG338     -0.0865
    117  CZ       -15.0730    0.7920   52.5780 C.cat 338  ARG338      0.5346
    118  NH1      -14.2210    1.5680   51.9180 N.pl3 338  ARG338      0.1354
    119  NH2      -15.3070   -0.4400   52.1450 N.pl3 338  ARG338      0.1354
@<TRIPOS>BOND
     1    86    85    2
     2    48    46   ar
     3    47    46   ar
     4    39    37    1
     5    46    45    1
     6    40    38    1
     7    36    35    2
     8    85    84    1
     9    35    34    1
    10    35    41   am
    11    38    37    1
    12    37    34    1
    13    45    42    1
    14    34    33    1
    15    84    87    1
    16    84    83    1
    17    42    41    1
    18    42    43    1
    19    89    90    1
    20    89    88    1
    21    87    88    1
    22    43    44    2
    23    43    49   am
    24    90    91    2
    25    52    51    2
    26    49    50    1
    27    91    93    1
    28    91    92    1
    29    80    79    2
    30    51    50    1
    31    51    58   am
    32    50    53    1
    33    79    78    1
    34    82    81    1
    35    53    54    1
    36    59    60    1
    37    59    58    1
    38    59    62    1
    39    60    61    2
    40    72    71    2
    41    81    78    1
    42    78    77    1
    43    62    63    1
    44    63    64    1
    45    71    77   am
    46    71    70    1
    47    54    55    1
    48    69    70    1
    49   101    99    1
    50    56    55   ar
    51   108   106    1
    52    55    57   ar
    53    70    73    1
    54    64    65    1
    55   106   107    1
    56   106   103    1
    57    73    74    1
    58    97    96    2
    59    98    99    1
    60    98    95    1
    61    99   100    1
    62    94    95    1
    63    67    66    1
    64   105   104    2
    65   104   103    1
    66    74    76   ar
    67    74    75   ar
    68    65    66    2
    69    95    96    1
    70   103   102    1
    71    66    68    1
    72    24    23    1
    73    24    25    1
    74    23    22    1
    75     6     5    1
    76     6     7    1
    77     5     2    1
    78    22    21    1
    79    31    30    1
    80     7     1    1
    81     2     1    1
    82     2     3    1
    83    32    30    1
    84    30    27    1
    85    21    18    1
    86    27    26    1
    87    27    28    1
    88    20    19    2
    89    26    19   am
    90    19    18    1
    91     3     8   am
    92     3     4    2
    93    29    28    2
    94     8     9    1
    95    15    16    1
    96    15    14    1
    97    18    17    1
    98    13    14    1
    99    13    12    1
   100   118   117    1
   101   119   117    1
   102     9    12    1
   103     9    10    1
   104   117   116    2
   105    10    11    2
   106   116   115    1
   107   115   114    1
   108   114   113    1
   109   113   110    1
   110   109   110    1
   111   110   111    1
   112   111   112    2
