@<TRIPOS>MOLECULE
tmp/1xpyD00.pdb
 197 184 0 0 0
SMALL
GASTEIGER

@<TRIPOS>ATOM
      1  N         41.7620   -0.8350  -77.0010 N.3    19  PHE19      -0.1241
      2  CA        40.6620    0.0220  -77.4510 C.3    19  PHE19       0.1605
      3  C         40.4400    1.1900  -76.4940 C.2    19  PHE19       0.2264
      4  O         40.7680    1.1230  -75.3120 O.2    19  PHE19      -0.2867
      5  CB        39.3550   -0.7840  -77.6150 C.3    19  PHE19       0.0534
      6  CG        38.9170   -1.5030  -76.3570 C.ar   19  PHE19      -0.0203
      7  CD1       38.1770   -0.8430  -75.3800 C.ar   19  PHE19      -0.0042
      8  CD2       39.2560   -2.8350  -76.1510 C.ar   19  PHE19      -0.0042
      9  CE1       37.7890   -1.4930  -74.2310 C.ar   19  PHE19      -0.0003
     10  CE2       38.8620   -3.4940  -74.9920 C.ar   19  PHE19      -0.0003
     11  CZ        38.1340   -2.8230  -74.0310 C.ar   19  PHE19      -0.0000
     12  N         38.1250    3.0530  -74.3340 N.3    21  PHE21      -0.1241
     13  CA        36.9030    2.7010  -73.6040 C.3    21  PHE21       0.1605
     14  C         36.1080    3.9220  -73.1460 C.2    21  PHE21       0.2264
     15  O         36.6130    4.7730  -72.4180 O.2    21  PHE21      -0.2867
     16  CB        37.1970    1.8000  -72.4060 C.3    21  PHE21       0.0534
     17  CG        36.0000    1.0060  -71.9460 C.ar   21  PHE21      -0.0203
     18  CD1       35.2530    0.2630  -72.8490 C.ar   21  PHE21      -0.0042
     19  CD2       35.6130    1.0170  -70.6170 C.ar   21  PHE21      -0.0042
     20  CE1       34.1620   -0.4680  -72.4220 C.ar   21  PHE21      -0.0003
     21  CE2       34.5330    0.2870  -70.1930 C.ar   21  PHE21      -0.0003
     22  CZ        33.8020   -0.4540  -71.0890 C.ar   21  PHE21      -0.0000
     23  N         31.1000    7.9840  -67.0220 N.3    25  PHE25      -0.1241
     24  CA        32.1960    8.6860  -66.3280 C.3    25  PHE25       0.1605
     25  C         33.5860    9.0750  -66.9100 C.2    25  PHE25       0.2264
     26  O         34.3280    9.7820  -66.2230 O.2    25  PHE25      -0.2867
     27  CB        32.4730    7.8830  -65.0500 C.3    25  PHE25       0.0534
     28  CG        32.9800    6.4730  -65.2960 C.ar   25  PHE25      -0.0203
     29  CD1       32.1130    5.3890  -65.2240 C.ar   25  PHE25      -0.0042
     30  CD2       34.3320    6.2390  -65.5590 C.ar   25  PHE25      -0.0042
     31  CE1       32.5750    4.1050  -65.4210 C.ar   25  PHE25      -0.0003
     32  CE2       34.8060    4.9700  -65.7550 C.ar   25  PHE25      -0.0003
     33  CZ        33.9300    3.8890  -65.6860 C.ar   25  PHE25      -0.0000
     34  N         39.5420    6.4330  -70.3190 N.3    28  GLN28      -0.1245
     35  CA        40.2440    5.1800  -69.9930 C.3    28  GLN28       0.1566
     36  C         41.0210    4.5880  -71.1830 C.2    28  GLN28       0.2260
     37  O         40.4450    4.1360  -72.1750 O.2    28  GLN28      -0.2867
     38  CB        39.2900    4.1360  -69.4050 C.3    28  GLN28       0.0367
     39  CG        39.9430    3.1870  -68.3990 C.3    28  GLN28       0.0905
     40  CD        38.9940    2.7970  -67.2640 C.2    28  GLN28       0.2608
     41  OE1       39.4320    2.6060  -66.1320 O.2    28  GLN28      -0.2717
     42  NE2       37.6920    2.6880  -67.5690 N.am   28  GLN28      -0.0878
     43  N         40.4570    2.1930  -59.0670 N.3    52  GLU52      -0.1245
     44  CA        41.1620    3.0500  -60.0170 C.3    52  GLU52       0.1567
     45  C         42.0560    4.0480  -59.2830 C.2    52  GLU52       0.2260
     46  O         41.9410    4.2410  -58.0670 O.2    52  GLU52      -0.2867
     47  CB        40.1560    3.8620  -60.8400 C.3    52  GLU52       0.0388
     48  CG        39.0260    3.0680  -61.4860 C.3    52  GLU52       0.1160
     49  CD        37.7400    3.8760  -61.6370 C.2    52  GLU52       0.3649
     50  OE1       37.1860    4.3490  -60.6200 O.co2  52  GLU52      -0.2457
     51  OE2       37.2630    4.0210  -62.7840 O.co2  52  GLU52      -0.2457
     52  N         34.5720    5.1610  -61.4150 N.3    57  TYR57      -0.1241
     53  CA        33.5130    4.1750  -61.4530 C.3    57  TYR57       0.1605
     54  C         32.8610    4.0940  -60.0830 C.2    57  TYR57       0.2264
     55  O         31.6470    3.9550  -59.9740 O.2    57  TYR57      -0.2867
     56  CB        34.0490    2.7970  -61.8730 C.3    57  TYR57       0.0534
     57  CG        33.1480    1.6650  -61.4510 C.ar   57  TYR57      -0.0201
     58  CD1       33.4860    0.8640  -60.3900 C.ar   57  TYR57      -0.0009
     59  CD2       31.9460    1.4190  -62.1100 C.ar   57  TYR57      -0.0009
     60  CE1       32.6720   -0.1570  -59.9780 C.ar   57  TYR57       0.0417
     61  CE2       31.1120    0.3670  -61.7090 C.ar   57  TYR57       0.0417
     62  CZ        31.4970   -0.4040  -60.6280 C.ar   57  TYR57       0.1957
     63  OH        30.7330   -1.4240  -60.1830 O.3    57  TYR57      -0.2866
     64  N         30.8870   -5.7920  -73.7430 N.3   137  SER137     -0.1217
     65  CA        30.5320   -4.4310  -73.3860 C.3   137  SER137      0.1889
     66  C         31.2830   -3.4860  -74.3090 C.2   137  SER137      0.2288
     67  O         32.5270   -3.4410  -74.2730 O.2   137  SER137     -0.2866
     68  CB        30.9220   -4.1640  -71.9280 C.3   137  SER137      0.2089
     69  OG        30.8380   -2.7820  -71.5980 O.3   137  SER137     -0.2183
     70  N         26.2020   -5.2420  -75.3500 N.3   163  LYS163     -0.1245
     71  CA        25.9270   -4.1650  -74.4150 C.3   163  LYS163      0.1561
     72  C         26.5570   -2.8760  -74.9080 C.2   163  LYS163      0.2260
     73  O         27.7420   -2.8340  -75.2100 O.2   163  LYS163     -0.2867
     74  CB        26.4430   -4.5580  -73.0410 C.3   163  LYS163      0.0271
     75  CG        26.6220   -3.4390  -72.0140 C.3   163  LYS163      0.0035
     76  CD        27.0990   -4.0730  -70.6830 C.3   163  LYS163      0.0206
     77  CE        27.8530   -3.1010  -69.7960 C.3   163  LYS163      0.1093
     78  NZ        28.5340   -3.8220  -68.6810 N.3   163  LYS163     -0.1314
     79  N         27.3800    1.1060  -74.0240 N.3   165  LYS165     -0.1245
     80  CA        27.5270    2.2390  -73.1040 C.3   165  LYS165      0.1561
     81  C         26.7900    3.4120  -73.6980 C.2   165  LYS165      0.2260
     82  O         26.9790    3.6960  -74.8700 O.2   165  LYS165     -0.2867
     83  CB        29.0000    2.6350  -72.9330 C.3   165  LYS165      0.0271
     84  CG        29.8800    1.5910  -72.2590 C.3   165  LYS165      0.0035
     85  CD        29.7370    1.6190  -70.7440 C.3   165  LYS165      0.0206
     86  CE        30.8370    0.7980  -70.0640 C.3   165  LYS165      0.1093
     87  NZ        30.4630    0.3530  -68.6900 N.3   165  LYS165     -0.1314
     88  N         23.9760    0.5260  -70.8840 N.3   190  ASP190     -0.1239
     89  CA        24.6630    0.8630  -69.6260 C.3   190  ASP190      0.1674
     90  C         24.9370    2.3700  -69.4850 C.2   190  ASP190      0.2266
     91  O         25.7620    2.9070  -70.2360 O.2   190  ASP190     -0.2867
     92  CB        26.0230    0.1630  -69.5970 C.3   190  ASP190      0.1410
     93  CG        26.7560    0.3290  -68.2720 C.2   190  ASP190      0.3668
     94  OD1       27.8790   -0.2200  -68.1460 O.co2 190  ASP190     -0.2456
     95  OD2       26.3040    0.9480  -67.2860 O.co2 190  ASP190     -0.2456
     96  N         26.0680    3.8260  -66.4530 N.3   192  ASN192     -0.1240
     97  CA        26.9190    4.0350  -65.2610 C.3   192  ASN192      0.1653
     98  C         26.4360    5.2550  -64.4690 C.2   192  ASN192      0.2266
     99  O         27.1810    6.2270  -64.2880 O.2   192  ASN192     -0.2867
    100  CB        28.4030    4.1610  -65.6640 C.3   192  ASN192      0.1155
    101  CG        29.0200    2.8050  -66.0790 C.2   192  ASN192      0.2627
    102  OD1       29.3460    1.9660  -65.2110 O.2   192  ASN192     -0.2716
    103  ND2       29.1720    2.5850  -67.3950 N.am  192  ASN192     -0.0877
    104  N         24.2510   -2.2900  -60.7590 N.3   240  ASP240     -0.1239
    105  CA        25.6820   -2.5440  -60.6830 C.3   240  ASP240      0.1674
    106  C         26.2700   -1.8390  -59.4670 C.2   240  ASP240      0.2266
    107  O         26.4010   -2.4260  -58.4000 O.2   240  ASP240     -0.2867
    108  CB        26.3350   -2.0840  -61.9820 C.3   240  ASP240      0.1410
    109  CG        27.8580   -2.1700  -61.9580 C.2   240  ASP240      0.3668
    110  OD1       28.4510   -1.9390  -63.0350 O.co2 240  ASP240     -0.2456
    111  OD2       28.5450   -2.4250  -60.9400 O.co2 240  ASP240     -0.2456
    112  N         29.8070   -7.8690  -59.5590 N.3   264  LYS264     -0.1245
    113  CA        31.2620   -7.7120  -59.6480 C.3   264  LYS264      0.1561
    114  C         31.8850   -8.1790  -58.3420 C.2   264  LYS264      0.2260
    115  O         31.6820   -7.5830  -57.2930 O.2   264  LYS264     -0.2867
    116  CB        31.6610   -6.2650  -59.9800 C.3   264  LYS264      0.0271
    117  CG        31.2560   -5.8400  -61.4090 C.3   264  LYS264      0.0035
    118  CD        31.7120   -4.4210  -61.7780 C.3   264  LYS264      0.0206
    119  CE        31.3260   -4.0920  -63.2200 C.3   264  LYS264      0.1093
    120  NZ        31.3320   -2.6410  -63.5310 N.3   264  LYS264     -0.1314
    121  N         32.5050   -6.8900  -65.5430 N.3   292  GLY292     -0.1210
    122  CA        33.9220   -6.8260  -65.8580 C.3   292  GLY292      0.1956
    123  C         34.5070   -5.4900  -65.4660 C.2   292  GLY292      0.2612
    124  O         33.7790   -4.4950  -65.3450 O.2   292  GLY292     -0.2717
    125  N         35.8200   -5.4510  -65.2770 N.am  293  MET293     -0.1965
    126  CA        36.4860   -4.2150  -64.8730 C.3   293  MET293      0.1736
    127  C         37.8400   -4.0700  -65.5520 C.2   293  MET293      0.2616
    128  O         38.7670   -3.5700  -64.9500 O.2   293  MET293     -0.2715
    129  CB        36.6700   -4.1930  -63.3420 C.3   293  MET293      0.0427
    130  CG        35.3620   -4.0940  -62.5100 C.3   293  MET293      0.0599
    131  SD        34.6270   -2.4230  -62.5150 S.3   293  MET293     -0.1393
    132  CE        35.8110   -1.5650  -61.5210 C.3   293  MET293      0.0692
    133  N         37.9580   -4.5440  -66.7870 N.am  294  LEU294     -0.1963
    134  CA        39.2060   -4.4280  -67.5580 C.3   294  LEU294      0.1728
    135  C         40.3810   -5.1500  -66.8960 C.2   294  LEU294      0.2616
    136  O         41.4940   -4.6430  -66.8750 O.2   294  LEU294     -0.2715
    137  CB        39.5620   -2.9450  -67.7880 C.3   294  LEU294      0.0311
    138  CG        38.4340   -2.0730  -68.3730 C.3   294  LEU294      0.0022
    139  CD1       38.8180   -0.5980  -68.4900 C.3   294  LEU294      0.0001
    140  CD2       38.0560   -2.5810  -69.7390 C.3   294  LEU294      0.0001
    141  N         40.1430   -6.3520  -66.3770 N.am  295  GLU295     -0.1977
    142  CA        41.1390   -7.0020  -65.5510 C.3   295  GLU295      0.1602
    143  C         42.1830   -7.7780  -66.3600 C.2   295  GLU295      0.2287
    144  O         41.9000   -8.2830  -67.4390 O.2   295  GLU295     -0.2864
    145  CB        40.4600   -7.9220  -64.5250 C.3   295  GLU295      0.0415
    146  CG        39.4890   -7.2020  -63.5830 C.3   295  GLU295      0.1163
    147  CD        38.0370   -7.5210  -63.8760 C.2   295  GLU295      0.3649
    148  OE1       37.6780   -7.4950  -65.0770 O.co2 295  GLU295     -0.2457
    149  OE2       37.2640   -7.7960  -62.9160 O.co2 295  GLU295     -0.2457
    150  N         40.4870  -11.7910  -64.3790 N.3   300  ARG300     -0.1245
    151  CA        39.5560  -12.3820  -65.3620 C.3   300  ARG300      0.1563
    152  C         39.2860  -13.8340  -65.0180 C.2   300  ARG300      0.2260
    153  O         38.1410  -14.3070  -65.1330 O.2   300  ARG300     -0.2867
    154  CB        40.0760  -12.2570  -66.7880 C.3   300  ARG300      0.0307
    155  CG        39.1060  -12.7520  -67.8840 C.3   300  ARG300      0.0489
    156  CD        39.5260  -12.3300  -69.2950 C.3   300  ARG300      0.2205
    157  NE        39.9010  -10.9160  -69.2540 N.pl3 300  ARG300     -0.0865
    158  CZ        39.0700   -9.9070  -69.4670 C.cat 300  ARG300      0.5346
    159  NH1       37.8010  -10.1180  -69.8000 N.pl3 300  ARG300      0.1354
    160  NH2       39.5210   -8.6710  -69.3820 N.pl3 300  ARG300      0.1354
    161  N         30.4010   -9.9960  -68.8230 N.3   317  ASP317     -0.1239
    162  CA        31.2970   -9.1120  -69.5520 C.3   317  ASP317      0.1674
    163  C         32.6860   -9.7190  -69.6770 C.2   317  ASP317      0.2266
    164  O         33.6290   -9.0260  -70.0070 O.2   317  ASP317     -0.2867
    165  CB        31.3880   -7.7360  -68.8630 C.3   317  ASP317      0.1410
    166  CG        30.1950   -6.8440  -69.1730 C.2   317  ASP317      0.3668
    167  OD1       29.4280   -7.1490  -70.1050 O.co2 317  ASP317     -0.2456
    168  OD2       29.9460   -5.7980  -68.5410 O.co2 317  ASP317     -0.2456
    169  N         34.8800  -11.1020  -71.6780 N.3   319  SER319     -0.1217
    170  CA        35.2540  -11.4310  -73.0290 C.3   319  SER319      0.1889
    171  C         36.7490  -11.7820  -73.1170 C.2   319  SER319      0.2288
    172  O         37.4670  -11.8760  -72.1000 O.2   319  SER319     -0.2866
    173  CB        34.8360  -10.3210  -74.0070 C.3   319  SER319      0.2089
    174  OG        35.3450   -9.0400  -73.6540 O.3   319  SER319     -0.2183
    175  N         41.3090   -9.1670  -76.5250 N.3   323  ARG323     -0.1231
    176  CA        40.5940   -7.9280  -76.8730 C.3   323  ARG323      0.1694
    177  C         41.1870   -6.6980  -76.1860 C.2   323  ARG323      0.2592
    178  O         41.0260   -5.5670  -76.6530 O.2   323  ARG323     -0.2718
    179  CB        39.1220   -7.9920  -76.4350 C.3   323  ARG323      0.0321
    180  CG        38.1790   -8.7000  -77.3740 C.3   323  ARG323      0.0489
    181  CD        36.7210   -8.5010  -76.9780 C.3   323  ARG323      0.2205
    182  NE        36.3090   -7.1370  -77.3130 N.pl3 323  ARG323     -0.0865
    183  CZ        35.9440   -6.2110  -76.4450 C.cat 323  ARG323      0.5346
    184  NH1       35.6230   -4.9980  -76.8780 N.pl3 323  ARG323      0.1354
    185  NH2       35.8860   -6.4780  -75.1440 N.pl3 323  ARG323      0.1354
    186  N         41.8330   -6.9360  -75.0480 N.am  324  TYR324     -0.1976
    187  CA        42.2330   -5.8660  -74.1380 C.3   324  TYR324      0.1639
    188  C         43.7370   -5.5730  -74.1870 C.2   324  TYR324      0.2290
    189  O         44.1500   -4.4110  -74.2570 O.2   324  TYR324     -0.2864
    190  CB        41.8700   -6.2380  -72.6940 C.3   324  TYR324      0.0560
    191  CG        40.4090   -6.4960  -72.4180 C.ar  324  TYR324     -0.0198
    192  CD1       39.8770   -7.7610  -72.5670 C.ar  324  TYR324     -0.0009
    193  CD2       39.5780   -5.4910  -71.9510 C.ar  324  TYR324     -0.0009
    194  CE1       38.5650   -8.0170  -72.2960 C.ar  324  TYR324      0.0417
    195  CE2       38.2360   -5.7410  -71.6660 C.ar  324  TYR324      0.0417
    196  CZ        37.7410   -7.0070  -71.8490 C.ar  324  TYR324      0.1957
    197  OH        36.4230   -7.3060  -71.5910 O.3   324  TYR324     -0.2866
@<TRIPOS>BOND
     1     5     2    1
     2     5     6    1
     3     2     1    1
     4     2     3    1
     5   180   181    1
     6   180   179    1
     7   182   181    1
     8   182   183    2
     9   184   183    1
    10   176   175    1
    11   176   179    1
    12   176   177    1
    13   178   177    2
    14     3     4    2
    15   183   185    1
    16     6     8   ar
    17     6     7   ar
    18   177   186   am
    19     8    10   ar
    20     7     9   ar
    21    70    71    1
    22    73    72    2
    23   186   187    1
    24    10    11   ar
    25    72    71    1
    26    82    81    2
    27    71    74    1
    28    12    13    1
    29    66    67    2
    30    66    65    1
    31   189   188    2
    32     9    11   ar
    33   188   187    1
    34   187   190    1
    35    79    80    1
    36   173   174    1
    37   173   170    1
    38    64    65    1
    39    81    80    1
    40    13    14    1
    41    13    16    1
    42    65    68    1
    43    14    15    2
    44   171   170    1
    45   171   172    2
    46    80    83    1
    47    74    75    1
    48   170   169    1
    49    83    84    1
    50    18    20   ar
    51    18    17   ar
    52   190   191    1
    53   192   191   ar
    54   192   194   ar
    55    20    22   ar
    56   191   193   ar
    57    16    17    1
    58   194   196   ar
    59    84    85    1
    60    37    36    2
    61    75    76    1
    62   193   195   ar
    63    17    19   ar
    64    68    69    1
    65   196   195   ar
    66   196   197    1
    67    36    35    1
    68    22    21   ar
    69    88    89    1
    70    85    86    1
    71    76    77    1
    72    19    21   ar
    73    34    35    1
    74    91    90    2
    75   167   166   ar
    76    86    87    1
    77   164   163    2
    78    35    38    1
    79   159   158    1
    80    77    78    1
    81   140   138    1
    82   163   162    1
    83    89    92    1
    84    89    90    1
    85    92    93    1
    86   162   165    1
    87   162   161    1
    88   158   160    1
    89   158   157    2
    90    38    39    1
    91   156   157    1
    92   156   155    1
    93   166   165    1
    94   166   168   ar
    95   139   138    1
    96    39    40    1
    97   138   137    1
    98    93    94   ar
    99    93    95   ar
   100   155   154    1
   101   137   134    1
   102    42    40   am
   103   134   135    1
   104   134   133    1
   105   144   143    2
   106   103   101   am
   107    40    41    2
   108    23    24    1
   109    25    24    1
   110    25    26    2
   111   135   136    2
   112   135   141   am
   113   154   151    1
   114   133   127   am
   115    96    97    1
   116   141   142    1
   117   143   142    1
   118    24    27    1
   119   101   100    1
   120   101   102    2
   121   122   121    1
   122   122   123    1
   123    32    33   ar
   124    32    30   ar
   125    33    31   ar
   126   100    97    1
   127    30    28   ar
   128   127   128    2
   129   127   126    1
   130   142   145    1
   131   123   124    2
   132   123   125   am
   133    31    29   ar
   134   151   152    1
   135   151   150    1
   136    28    29   ar
   137    28    27    1
   138   125   126    1
   139    97    98    1
   140   153   152    2
   141   148   147   ar
   142   126   129    1
   143   145   146    1
   144    98    99    2
   145   147   146    1
   146   147   149   ar
   147   120   119    1
   148   129   130    1
   149   119   118    1
   150   110   109   ar
   151    51    49   ar
   152   131   130    1
   153   131   132    1
   154    59    61   ar
   155    59    57   ar
   156   108   109    1
   157   108   105    1
   158   109   111   ar
   159    56    53    1
   160    56    57    1
   161   118   117    1
   162    61    62   ar
   163    49    48    1
   164    49    50   ar
   165    48    47    1
   166    53    52    1
   167    53    54    1
   168    57    58   ar
   169   117   116    1
   170    47    44    1
   171   104   105    1
   172   105   106    1
   173    62    63    1
   174    62    60   ar
   175    58    60   ar
   176    54    55    2
   177    44    45    1
   178    44    43    1
   179   116   113    1
   180   113   112    1
   181   113   114    1
   182   106   107    2
   183    45    46    2
   184   114   115    2
