@<TRIPOS>MOLECULE
tmp/1xq0A00.pdb
 162 156 0 0 0
SMALL
GASTEIGER

@<TRIPOS>ATOM
      1  N         22.6030   34.9410    8.9020 N.3    60  ASN60      -0.1240
      2  CA        23.7490   35.3710    9.6930 C.3    60  ASN60       0.1653
      3  C         24.9990   34.5240    9.4690 C.2    60  ASN60       0.2266
      4  O         25.9540   34.6070   10.2350 O.2    60  ASN60      -0.2867
      5  CB        23.3840   35.3800   11.1810 C.3    60  ASN60       0.1155
      6  CG        23.3410   33.9870   11.7840 C.2    60  ASN60       0.2627
      7  OD1       23.2140   32.9890   11.0750 O.2    60  ASN60      -0.2716
      8  ND2       23.4370   33.9170   13.1100 N.am   60  ASN60      -0.0877
      9  N         17.3890   33.1390   10.3810 N.3    65  ASN65      -0.1240
     10  CA        16.6280   33.2940   11.6060 C.3    65  ASN65       0.1653
     11  C         15.5090   34.2980   11.4760 C.2    65  ASN65       0.2266
     12  O         15.6410   35.2960   10.7770 O.2    65  ASN65      -0.2867
     13  CB        17.5660   33.7500   12.7190 C.3    65  ASN65       0.1155
     14  CG        18.8830   33.0000   12.7110 C.2    65  ASN65       0.2627
     15  OD1       19.6730   33.1120   11.7680 O.2    65  ASN65      -0.2716
     16  ND2       19.1250   32.2320   13.7580 N.am   65  ASN65      -0.0877
     17  N         13.3330   36.8020   13.6980 N.3    67  GLU67      -0.1245
     18  CA        13.3470   37.4500   15.0060 C.3    67  GLU67       0.1567
     19  C         11.9860   37.9970   15.3990 C.2    67  GLU67       0.2260
     20  O         11.2310   38.4710   14.5530 O.2    67  GLU67      -0.2867
     21  CB        14.3790   38.5820   15.0190 C.3    67  GLU67       0.0388
     22  CG        15.7680   38.1510   14.5720 C.3    67  GLU67       0.1160
     23  CD        16.8080   39.2430   14.7390 C.2    67  GLU67       0.3649
     24  OE1       16.5410   40.3930   14.3290 O.co2  67  GLU67      -0.2457
     25  OE2       17.8980   38.9450   15.2730 O.co2  67  GLU67      -0.2457
     26  N         11.8900   34.5180   21.3520 N.3    89  ILE89      -0.1231
     27  CA        12.7280   35.5760   20.7990 C.3    89  ILE89       0.1692
     28  C         13.0450   35.3410   19.3140 C.2    89  ILE89       0.2591
     29  O         13.1080   36.2870   18.5290 O.2    89  ILE89      -0.2718
     30  CB        14.0340   35.7450   21.6280 C.3    89  ILE89       0.0266
     31  CG1       14.8750   36.8900   21.0650 C.3    89  ILE89       0.0019
     32  CG2       14.8250   34.4500   21.6440 C.3    89  ILE89       0.0020
     33  CD1       16.0480   37.2700   21.9580 C.3    89  ILE89       0.0001
     34  N         13.2180   34.0830   18.9190 N.am   90  GLN90      -0.1979
     35  CA        13.5130   33.7830   17.5200 C.3    90  GLN90       0.1601
     36  C         13.4520   32.3020   17.2060 C.2    90  GLN90       0.2287
     37  O         13.3470   31.4640   18.1030 O.2    90  GLN90      -0.2864
     38  CB        14.9120   34.2960   17.1450 C.3    90  GLN90       0.0394
     39  CG        16.0870   33.5490   17.7950 C.3    90  GLN90       0.0908
     40  CD        16.8290   32.6120   16.8330 C.2    90  GLN90       0.2608
     41  OE1       16.4210   31.4720   16.6090 O.2    90  GLN90      -0.2717
     42  NE2       17.9220   33.1030   16.2580 N.am   90  GLN90      -0.0878
     43  N         14.9860   29.2900   14.1110 N.3    92  HIS92      -0.1241
     44  CA        15.8860   29.0110   13.0060 C.3    92  HIS92       0.1621
     45  C         15.8390   27.5130   12.7450 C.2    92  HIS92       0.2264
     46  O         15.1980   26.7600   13.4890 O.2    92  HIS92      -0.2867
     47  CB        17.3190   29.4210   13.3550 C.3    92  HIS92       0.0745
     48  CG        17.8790   28.7000   14.5410 C.ar   92  HIS92       0.0817
     49  ND1       17.7030   29.1470   15.8340 N.ar   92  HIS92      -0.2268
     50  CD2       18.5630   27.5350   14.6350 C.ar   92  HIS92       0.1154
     51  CE1       18.2520   28.2870   16.6720 C.ar   92  HIS92       0.1986
     52  NE2       18.7790   27.3010   15.9710 N.ar   92  HIS92      -0.2212
     53  N         18.1020   23.8520   11.0660 N.3    94  HIS94      -0.1241
     54  CA        19.3590   23.1580   10.7910 C.3    94  HIS94       0.1621
     55  C         18.9420   22.1470    9.7340 C.2    94  HIS94       0.2264
     56  O         17.8850   21.5340    9.8610 O.2    94  HIS94      -0.2867
     57  CB        19.8540   22.4030   12.0190 C.3    94  HIS94       0.0745
     58  CG        20.2230   23.2950   13.1600 C.ar   94  HIS94       0.0817
     59  ND1       21.4950   23.7980   13.3330 N.ar   94  HIS94      -0.2268
     60  CD2       19.4790   23.7920   14.1740 C.ar   94  HIS94       0.1154
     61  CE1       21.5180   24.5650   14.4080 C.ar   94  HIS94       0.1986
     62  NE2       20.3070   24.5760   14.9360 N.ar   94  HIS94      -0.2212
     63  N         14.1450   25.0470   15.5770 N.3   117  HIS117     -0.1241
     64  CA        14.3860   25.4350   16.9660 C.3   117  HIS117      0.1621
     65  C         13.7220   26.7630   17.2850 C.2   117  HIS117      0.2264
     66  O         14.0450   27.7850   16.6930 O.2   117  HIS117     -0.2867
     67  CB        15.8890   25.5450   17.2350 C.3   117  HIS117      0.0745
     68  CG        16.5960   24.2260   17.2480 C.ar  117  HIS117      0.0817
     69  ND1       17.9650   24.1130   17.1430 N.ar  117  HIS117     -0.2268
     70  CD2       16.1230   22.9630   17.3610 C.ar  117  HIS117      0.1154
     71  CE1       18.3070   22.8370   17.1920 C.ar  117  HIS117      0.1986
     72  NE2       17.2060   22.1190   17.3240 N.ar  117  HIS117     -0.2212
     73  N         13.4150   29.3860   20.0490 N.3   119  VAL119     -0.1245
     74  CA        14.1620   29.8030   21.2350 C.3   119  VAL119      0.1561
     75  C         13.4020   30.7490   22.1630 C.2   119  VAL119      0.2260
     76  O         12.8590   31.7570   21.7180 O.2   119  VAL119     -0.2867
     77  CB        15.4820   30.4710   20.7940 C.3   119  VAL119      0.0252
     78  CG1       16.3350   30.8230   22.0090 C.3   119  VAL119      0.0019
     79  CG2       16.2400   29.5290   19.8520 C.3   119  VAL119      0.0019
     80  N         17.4860   38.2360   27.4840 N.3   128  PHE128     -0.1241
     81  CA        18.1540   37.0660   26.9280 C.3   128  PHE128      0.1605
     82  C         19.6180   37.0050   27.3360 C.2   128  PHE128      0.2264
     83  O         20.1350   35.9370   27.6650 O.2   128  PHE128     -0.2867
     84  CB        18.0640   37.0990   25.3990 C.3   128  PHE128      0.0534
     85  CG        18.6540   35.8930   24.7330 C.ar  128  PHE128     -0.0203
     86  CD1       17.8800   34.7610   24.4990 C.ar  128  PHE128     -0.0042
     87  CD2       19.9930   35.8810   24.3550 C.ar  128  PHE128     -0.0042
     88  CE1       18.4320   33.6300   23.8960 C.ar  128  PHE128     -0.0003
     89  CE2       20.5540   34.7600   23.7540 C.ar  128  PHE128     -0.0003
     90  CZ        19.7730   33.6310   23.5240 C.ar  128  PHE128     -0.0000
     91  N         21.1170   33.5260   29.4360 N.3   132  VAL132     -0.1245
     92  CA        22.0520   32.5040   28.9670 C.3   132  VAL132      0.1561
     93  C         23.1420   32.1480   29.9720 C.2   132  VAL132      0.2260
     94  O         23.8370   31.1450   29.8100 O.2   132  VAL132     -0.2867
     95  CB        22.7270   32.9160   27.6390 C.3   132  VAL132      0.0252
     96  CG1       21.6930   32.9870   26.5390 C.3   132  VAL132      0.0019
     97  CG2       23.4380   34.2480   27.7970 C.3   132  VAL132      0.0019
     98  N         17.2170   29.2510   29.3850 N.3   138  LEU138     -0.1245
     99  CA        16.5100   29.0960   28.1190 C.3   138  LEU138      0.1561
    100  C         15.7040   27.8110   27.9910 C.2   138  LEU138      0.2260
    101  O         15.9460   26.8300   28.6810 O.2   138  LEU138     -0.2867
    102  CB        17.5020   29.1360   26.9480 C.3   138  LEU138      0.0270
    103  CG        18.5130   30.2820   26.8280 C.3   138  LEU138      0.0019
    104  CD1       19.3340   30.0780   25.5640 C.3   138  LEU138      0.0001
    105  CD2       17.8080   31.6240   26.7900 C.3   138  LEU138      0.0001
    106  N         14.2950   25.6210   24.6200 N.3   140  VAL140     -0.1245
    107  CA        14.2320   25.5460   23.1670 C.3   140  VAL140      0.1561
    108  C         13.3020   24.4070   22.7930 C.2   140  VAL140      0.2260
    109  O         13.4380   23.2810   23.2820 O.2   140  VAL140     -0.2867
    110  CB        15.6220   25.3060   22.5270 C.3   140  VAL140      0.0252
    111  CG1       15.4830   25.2260   21.0090 C.3   140  VAL140      0.0019
    112  CG2       16.5640   26.4480   22.8840 C.3   140  VAL140      0.0019
    113  N         23.3030   24.9940   24.2310 N.3   195  LEU195     -0.1231
    114  CA        23.1290   25.5800   22.9040 C.3   195  LEU195      0.1693
    115  C         23.8970   24.6100   22.0120 C.2   195  LEU195      0.2593
    116  O         24.8740   24.0130   22.4620 O.2   195  LEU195     -0.2718
    117  CB        23.7830   26.9640   22.8220 C.3   195  LEU195      0.0284
    118  CG        23.4290   28.0400   23.8560 C.3   195  LEU195      0.0019
    119  CD1       24.0760   29.3550   23.4380 C.3   195  LEU195      0.0001
    120  CD2       21.9390   28.2060   23.9660 C.3   195  LEU195      0.0001
    121  N         23.4680   24.4320   20.7640 N.am  196  THR196     -0.1939
    122  CA        24.1730   23.5070   19.8800 C.3   196  THR196      0.2028
    123  C         25.2100   24.1990   19.0060 C.2   196  THR196      0.2643
    124  O         25.8470   23.5650   18.1630 O.2   196  THR196     -0.2714
    125  CB        23.2040   22.7210   18.9810 C.3   196  THR196      0.1808
    126  OG1       22.5610   23.6170   18.0700 O.3   196  THR196     -0.2208
    127  CG2       22.1500   22.0140   19.8270 C.3   196  THR196      0.0379
    128  N         25.3630   25.5050   19.1900 N.am  197  THR197     -0.1937
    129  CA        26.3740   26.2630   18.4600 C.3   197  THR197      0.2013
    130  C         27.1680   27.0290   19.5100 C.2   197  THR197      0.2484
    131  O         26.6940   27.2320   20.6300 O.2   197  THR197     -0.2729
    132  CB        25.7740   27.3180   17.5110 C.3   197  THR197      0.1807
    133  OG1       25.1120   28.3290   18.2850 O.3   197  THR197     -0.2208
    134  CG2       24.7910   26.6830   16.5420 C.3   197  THR197      0.0379
    135  N         28.4000   27.4330   19.1750 N.am  198  PRO198     -0.2715
    136  CA        29.1900   28.1910   20.1480 C.3   198  PRO198      0.1521
    137  C         28.3380   29.3990   20.5420 C.2   198  PRO198      0.2440
    138  O         27.5890   29.9290   19.7140 O.2   198  PRO198     -0.2731
    139  CB        30.4210   28.5830   19.3470 C.3   198  PRO198      0.0310
    140  CG        30.6210   27.3790   18.4620 C.3   198  PRO198      0.0237
    141  CD        29.2140   27.0500   18.0050 C.3   198  PRO198      0.0939
    142  N         28.4710   29.8880   21.7850 N.am  199  PRO199     -0.2727
    143  CA        29.3390   29.4500   22.8840 C.3   199  PRO199      0.1402
    144  C         29.0420   28.1230   23.5910 C.2   199  PRO199      0.2269
    145  O         29.7140   27.7820   24.5630 O.2   199  PRO199     -0.2865
    146  CB        29.2920   30.6400   23.8400 C.3   199  PRO199      0.0296
    147  CG        27.8950   31.1140   23.6840 C.3   199  PRO199      0.0237
    148  CD        27.6880   31.0710   22.1830 C.3   199  PRO199      0.0939
    149  N         15.7350   21.4330   27.1030 N.3   206  TRP206     -0.1241
    150  CA        15.2490   20.9990   25.8020 C.3   206  TRP206      0.1605
    151  C         13.8950   20.3270   25.8430 C.2   206  TRP206      0.2264
    152  O         13.6200   19.4970   26.7050 O.2   206  TRP206     -0.2867
    153  CB        16.2530   20.0490   25.1350 C.3   206  TRP206      0.0550
    154  CG        17.3510   20.7800   24.4670 C.ar  206  TRP206      0.0003
    155  CD1       18.5460   21.1600   25.0160 C.ar  206  TRP206      0.0946
    156  CD2       17.3260   21.3270   23.1450 C.ar  206  TRP206      0.0152
    157  NE1       19.2600   21.9130   24.1180 N.ar  206  TRP206     -0.2442
    158  CE2       18.5360   22.0310   22.9620 C.ar  206  TRP206      0.0810
    159  CE3       16.3950   21.2940   22.0980 C.ar  206  TRP206      0.0012
    160  CZ2       18.8410   22.6980   21.7750 C.ar  206  TRP206      0.0191
    161  CZ3       16.6990   21.9570   20.9170 C.ar  206  TRP206      0.0001
    162  CH2       17.9130   22.6500   20.7660 C.ar  206  TRP206      0.0015
@<TRIPOS>BOND
     1     1     2    1
     2     3     2    1
     3     3     4    2
     4     2     5    1
     5    55    56    2
     6    55    54    1
     7     9    10    1
     8    12    11    2
     9    54    53    1
    10    54    57    1
    11     7     6    2
    12     5     6    1
    13    11    10    1
    14    10    13    1
    15    15    14    2
    16     6     8   am
    17    57    58    1
    18    14    13    1
    19    14    16   am
    20    45    44    1
    21    45    46    2
    22    44    47    1
    23    44    43    1
    24    58    59   ar
    25    58    60   ar
    26    59    61   ar
    27    47    48    1
    28    17    18    1
    29    60    62   ar
    30    24    23   ar
    31    61    62   ar
    32    48    50   ar
    33    48    49   ar
    34    20    19    2
    35    22    23    1
    36    22    21    1
    37    50    52   ar
    38    23    25   ar
    39    18    21    1
    40    18    19    1
    41    63    64    1
    42    49    51   ar
    43    52    51   ar
    44    42    40   am
    45   134   132    1
    46    41    40    2
    47    66    65    2
    48    40    39    1
    49    64    67    1
    50    64    65    1
    51    69    71   ar
    52    69    68   ar
    53    38    35    1
    54    38    39    1
    55    71    72   ar
    56    36    35    1
    57    36    37    2
    58    67    68    1
    59    68    70   ar
    60    72    70   ar
    61   132   133    1
    62   132   129    1
    63    35    34    1
    64   141   140    1
    65   141   135    1
    66   126   125    1
    67   124   123    2
    68   129   128    1
    69   129   130    1
    70   140   139    1
    71    29    28    2
    72    34    28   am
    73   125   127    1
    74   125   122    1
    75   123   128   am
    76   123   122    1
    77   135   130   am
    78   135   136    1
    79    28    27    1
    80   139   136    1
    81   130   131    2
    82   138   137    2
    83    79    77    1
    84   122   121    1
    85    73    74    1
    86   136   137    1
    87   137   142   am
    88   121   115   am
    89   162   161   ar
    90   162   160   ar
    91    77    74    1
    92    77    78    1
    93    27    26    1
    94    27    30    1
    95   161   159   ar
    96   111   110    1
    97    31    30    1
    98    31    33    1
    99    74    75    1
   100    30    32    1
   101    76    75    2
   102   160   158   ar
   103   142   148    1
   104   142   143    1
   105   115   116    2
   106   115   114    1
   107   159   156   ar
   108   148   147    1
   109   110   112    1
   110   110   107    1
   111   108   107    1
   112   108   109    2
   113   117   114    1
   114   117   118    1
   115   143   144    1
   116   143   146    1
   117   114   113    1
   118   158   156   ar
   119   158   157   ar
   120   156   154   ar
   121   107   106    1
   122   119   118    1
   123    90    89   ar
   124    90    88   ar
   125   144   145    2
   126   147   146    1
   127    89    87   ar
   128   118   120    1
   129    88    86   ar
   130   157   155   ar
   131    87    85   ar
   132   154   155   ar
   133   154   153    1
   134    86    85   ar
   135    85    84    1
   136   153   150    1
   137    84    81    1
   138   104   103    1
   139   150   151    1
   140   150   149    1
   141   151   152    2
   142    96    95    1
   143   105   103    1
   144   103   102    1
   145    81    82    1
   146    81    80    1
   147   102    99    1
   148    82    83    2
   149    95    97    1
   150    95    92    1
   151   100    99    1
   152   100   101    2
   153    99    98    1
   154    92    91    1
   155    92    93    1
   156    94    93    2
