@<TRIPOS>MOLECULE
tmp/1xq5C00.pdb
 216 207 0 0 0
SMALL
GASTEIGER

@<TRIPOS>ATOM
      1  N         11.4380    1.4020   68.0030 N.3    32  MET32      -0.1245
      2  CA        11.5720    1.4970   66.5760 C.3    32  MET32       0.1570
      3  C         10.6850    2.6260   66.0590 C.2    32  MET32       0.2261
      4  O         11.1250    3.4630   65.2770 O.2    32  MET32      -0.2867
      5  CB        11.1890    0.1900   65.8890 C.3    32  MET32       0.0387
      6  CG        11.4410    0.2440   64.4050 C.3    32  MET32       0.0595
      7  SD        11.0690   -1.2660   63.5360 S.3    32  MET32      -0.1393
      8  CE         9.3710   -1.4940   63.9010 C.3    32  MET32       0.0692
      9  N          9.3540    3.8150   60.0790 N.3    39  THR39      -0.1218
     10  CA         8.7960    2.4790   60.1720 C.3    39  THR39       0.1862
     11  C          7.3070    2.4880   60.5180 C.2    39  THR39       0.2287
     12  O          6.6500    1.4680   60.4290 O.2    39  THR39      -0.2866
     13  CB         9.5340    1.6900   61.2390 C.3    39  THR39       0.1770
     14  OG1        9.4200    2.3990   62.4560 O.3    39  THR39      -0.2211
     15  CG2       11.0160    1.5100   60.8790 C.3    39  THR39       0.0375
     16  N          4.3240    0.9590   58.2330 N.3    42  TYR42      -0.1227
     17  CA         3.9500   -0.4590   58.1970 C.3    42  TYR42       0.1736
     18  C          2.8800   -0.8290   59.2380 C.2    42  TYR42       0.2595
     19  O          2.2730   -1.8700   59.1540 O.2    42  TYR42      -0.2718
     20  CB         5.1750   -1.3570   58.3680 C.3    42  TYR42       0.0548
     21  CG         6.1870   -1.0940   57.2920 C.ar   42  TYR42      -0.0200
     22  CD1        6.0900   -1.7240   56.0610 C.ar   42  TYR42      -0.0009
     23  CD2        7.2280   -0.1940   57.4960 C.ar   42  TYR42      -0.0009
     24  CE1        7.0270   -1.4990   55.0670 C.ar   42  TYR42       0.0417
     25  CE2        8.1670    0.0620   56.4820 C.ar   42  TYR42       0.0417
     26  CZ         8.0500   -0.6140   55.2700 C.ar   42  TYR42       0.1957
     27  OH         8.9530   -0.4060   54.2250 O.3    42  TYR42      -0.2866
     28  N          2.6730    0.0370   60.2130 N.am   43  PHE43      -0.1976
     29  CA         1.7360   -0.2490   61.3050 C.3    43  PHE43       0.1639
     30  C          0.6660    0.8250   61.4080 C.2    43  PHE43       0.2290
     31  O          0.1550    1.1220   62.4920 O.2    43  PHE43      -0.2864
     32  CB         2.4980   -0.4140   62.6110 C.3    43  PHE43       0.0560
     33  CG         3.6570   -1.3850   62.5100 C.ar   43  PHE43      -0.0200
     34  CD1        3.4470   -2.7460   62.6020 C.ar   43  PHE43      -0.0042
     35  CD2        4.9490   -0.9160   62.3080 C.ar   43  PHE43      -0.0042
     36  CE1        4.5030   -3.6410   62.5040 C.ar   43  PHE43      -0.0003
     37  CE2        6.0100   -1.7960   62.2010 C.ar   43  PHE43      -0.0003
     38  CZ         5.7900   -3.1610   62.2920 C.ar   43  PHE43      -0.0000
     39  N         -2.2610    0.6480   60.5370 N.3    45  HIS45      -0.1226
     40  CA        -3.4020   -0.0550   61.0850 C.3    45  HIS45       0.1752
     41  C         -3.3050   -0.2760   62.6040 C.2    45  HIS45       0.2596
     42  O         -3.8690   -1.2360   63.1340 O.2    45  HIS45      -0.2718
     43  CB        -3.5430   -1.3930   60.3540 C.3    45  HIS45       0.0759
     44  CG        -2.2870   -2.2080   60.3550 C.ar   45  HIS45       0.0818
     45  ND1       -1.9710   -3.0880   61.3700 N.ar   45  HIS45      -0.2268
     46  CD2       -1.2550   -2.2580   59.4790 C.ar   45  HIS45       0.1154
     47  CE1       -0.8070   -3.6590   61.1100 C.ar   45  HIS45       0.1986
     48  NE2       -0.3480   -3.1670   59.9720 N.ar   45  HIS45      -0.2212
     49  N         -2.5790    0.5870   63.3090 N.am   46  TRP46      -0.1976
     50  CA        -2.6290    0.5610   64.7720 C.3    46  TRP46       0.1640
     51  C         -3.3290    1.8060   65.2960 C.2    46  TRP46       0.2290
     52  O         -3.9830    2.5180   64.5250 O.2    46  TRP46      -0.2864
     53  CB        -1.2540    0.3160   65.4370 C.3    46  TRP46       0.0576
     54  CG        -0.7470   -1.1250   65.3220 C.ar   46  TRP46       0.0006
     55  CD1       -1.4630   -2.2220   64.8950 C.ar   46  TRP46       0.0946
     56  CD2        0.5710   -1.6130   65.6420 C.ar   46  TRP46       0.0152
     57  NE1       -0.6690   -3.3380   64.9180 N.ar   46  TRP46      -0.2442
     58  CE2        0.5770   -2.9980   65.3750 C.ar   46  TRP46       0.0810
     59  CE3        1.7440   -1.0110   66.1170 C.ar   46  TRP46       0.0012
     60  CZ2        1.7070   -3.7920   65.5690 C.ar   46  TRP46       0.0191
     61  CZ3        2.8670   -1.7990   66.3140 C.ar   46  TRP46       0.0001
     62  CH2        2.8390   -3.1810   66.0380 C.ar   46  TRP46       0.0015
     63  N          2.1990   -7.6880   69.3360 N.3    59  HIS59      -0.1241
     64  CA         3.1400   -7.8670   68.2400 C.3    59  HIS59       0.1621
     65  C          4.6120   -8.0610   68.6870 C.2    59  HIS59       0.2264
     66  O          5.3790   -8.7570   68.0280 O.2    59  HIS59      -0.2867
     67  CB         3.0340   -6.7440   67.2250 C.3    59  HIS59       0.0745
     68  CG         3.8420   -7.0080   66.0070 C.ar   59  HIS59       0.0817
     69  ND1        3.5440   -8.0320   65.1310 N.ar   59  HIS59      -0.2268
     70  CD2        4.9590   -6.4120   65.5290 C.ar   59  HIS59       0.1154
     71  CE1        4.4330   -8.0370   64.1550 C.ar   59  HIS59       0.1986
     72  NE2        5.2960   -7.0620   64.3690 N.ar   59  HIS59      -0.2212
     73  N          4.9640  -11.5880   69.1910 N.3    62  THR62      -0.1203
     74  CA         5.1650  -12.2190   67.9010 C.3    62  THR62       0.1994
     75  C          6.6180  -12.0950   67.3700 C.2    62  THR62       0.2617
     76  O          7.2020  -13.0820   66.9260 O.2    62  THR62      -0.2717
     77  CB         4.1720  -11.6840   66.9030 C.3    62  THR62       0.1784
     78  OG1        2.8420  -11.8770   67.4280 O.3    62  THR62      -0.2211
     79  CG2        4.2610  -12.4620   65.6170 C.3    62  THR62       0.0376
     80  N          7.1870  -10.8890   67.3830 N.am   63  ILE63      -0.1979
     81  CA         8.6180  -10.7300   66.9780 C.3    63  ILE63       0.1595
     82  C          9.5410  -11.6400   67.7530 C.2    63  ILE63       0.2287
     83  O         10.3680  -12.3450   67.1780 O.2    63  ILE63      -0.2864
     84  CB         9.1390   -9.3350   67.2350 C.3    63  ILE63       0.0276
     85  CG1        8.1220   -8.2770   66.7720 C.3    63  ILE63       0.0022
     86  CG2       10.6270   -9.1890   66.6970 C.3    63  ILE63       0.0022
     87  CD1        7.8720   -8.2580   65.3660 C.3    63  ILE63       0.0001
     88  N          9.3440  -15.0230   66.4890 N.3    66  GLY66      -0.1210
     89  CA        10.1480  -15.2760   65.2770 C.3    66  GLY66       0.1956
     90  C         11.6260  -15.4070   65.5940 C.2    66  GLY66       0.2611
     91  O         12.3360  -16.1640   64.9430 O.2    66  GLY66      -0.2717
     92  N         12.1120  -14.6520   66.5920 N.am   67  ILE67      -0.1979
     93  CA        13.5310  -14.6720   66.9770 C.3    67  ILE67       0.1595
     94  C         13.8540  -15.9970   67.6950 C.2    67  ILE67       0.2287
     95  O         14.9340  -16.5390   67.5620 O.2    67  ILE67      -0.2864
     96  CB        13.8780  -13.4530   67.8420 C.3    67  ILE67       0.0276
     97  CG1       13.8870  -12.1930   66.9980 C.3    67  ILE67       0.0022
     98  CG2       15.3510  -13.4120   68.1860 C.3    67  ILE67       0.0022
     99  CD1       14.9920  -12.2720   65.9440 C.3    67  ILE67       0.0001
    100  N         13.9360  -19.4620   58.1730 N.3    81  LEU81      -0.1245
    101  CA        13.1240  -18.2230   58.1700 C.3    81  LEU81       0.1561
    102  C         12.4940  -17.9470   56.8070 C.2    81  LEU81       0.2260
    103  O         12.0170  -16.8650   56.5380 O.2    81  LEU81      -0.2867
    104  CB        13.9590  -17.0120   58.6370 C.3    81  LEU81       0.0270
    105  CG        14.6900  -17.2570   59.9550 C.3    81  LEU81       0.0019
    106  CD1       15.3590  -15.9430   60.4690 C.3    81  LEU81       0.0001
    107  CD2       13.7430  -17.7980   61.0220 C.3    81  LEU81       0.0001
    108  N          8.8830  -16.6200   56.8750 N.3    84  LEU84      -0.1245
    109  CA         8.8930  -15.2520   57.3820 C.3    84  LEU84       0.1561
    110  C          9.4970  -14.2870   56.3390 C.2    84  LEU84       0.2260
    111  O          9.0040  -13.1760   56.1790 O.2    84  LEU84      -0.2867
    112  CB         9.7030  -15.1610   58.6850 C.3    84  LEU84       0.0270
    113  CG         8.8070  -15.3770   59.8970 C.3    84  LEU84       0.0019
    114  CD1        9.7090  -15.5910   61.1340 C.3    84  LEU84       0.0001
    115  CD2        7.7910  -14.2140   60.0720 C.3    84  LEU84       0.0001
    116  N          6.8350  -13.6700   53.6980 N.3    87  LEU87      -0.1231
    117  CA         5.8400  -12.7820   54.2840 C.3    87  LEU87       0.1693
    118  C          6.2560  -11.3420   54.2550 C.2    87  LEU87       0.2592
    119  O          5.4370  -10.4330   53.9560 O.2    87  LEU87      -0.2718
    120  CB         5.6480  -13.1270   55.7480 C.3    87  LEU87       0.0284
    121  CG         4.6130  -12.3750   56.5450 C.3    87  LEU87       0.0019
    122  CD1        3.1900  -12.9000   56.1810 C.3    87  LEU87       0.0001
    123  CD2        4.9140  -12.5720   58.0500 C.3    87  LEU87       0.0001
    124  N          7.5010  -11.1160   54.6680 N.am   88  HIS88      -0.1976
    125  CA         7.9660   -9.7160   54.7750 C.3    88  HIS88       0.1656
    126  C          8.2790   -9.1750   53.3780 C.2    88  HIS88       0.2291
    127  O          8.3010   -7.9490   53.1660 O.2    88  HIS88      -0.2864
    128  CB         9.1410   -9.5770   55.7470 C.3    88  HIS88       0.0771
    129  CG         8.7460   -9.6740   57.1840 C.ar   88  HIS88       0.0820
    130  ND1        8.5160  -10.8820   57.8080 N.ar   88  HIS88      -0.2267
    131  CD2        8.4790   -8.7250   58.1050 C.ar   88  HIS88       0.1154
    132  CE1        8.1630  -10.6760   59.0610 C.ar   88  HIS88       0.1986
    133  NE2        8.1290   -9.3740   59.2660 N.ar   88  HIS88      -0.2212
    134  N          3.5150   -8.2070   53.2040 N.3    92  LEU92      -0.1245
    135  CA         3.6550   -6.9500   53.9320 C.3    92  LEU92       0.1561
    136  C          4.4820   -5.9570   53.1290 C.2    92  LEU92       0.2260
    137  O          4.3320   -4.7230   53.3040 O.2    92  LEU92      -0.2867
    138  CB         4.3260   -7.2220   55.2670 C.3    92  LEU92       0.0270
    139  CG         3.6640   -8.3440   56.0680 C.3    92  LEU92       0.0019
    140  CD1        4.5630   -8.7810   57.2010 C.3    92  LEU92       0.0001
    141  CD2        2.2110   -8.0140   56.5790 C.3    92  LEU92       0.0001
    142  N          8.0810   -5.1820   53.0640 N.3    94  VAL94      -0.1245
    143  CA         8.8670   -4.3920   54.0050 C.3    94  VAL94       0.1561
    144  C         10.2160   -4.0990   53.3990 C.2    94  VAL94       0.2260
    145  O         10.9100   -5.0160   52.9780 O.2    94  VAL94      -0.2867
    146  CB         9.0730   -5.1600   55.3410 C.3    94  VAL94       0.0252
    147  CG1       10.1620   -4.4990   56.1970 C.3    94  VAL94       0.0019
    148  CG2        7.7870   -5.2270   56.0820 C.3    94  VAL94       0.0019
    149  N         14.9210   -1.7870   56.7730 N.3    98  ASN98      -0.1225
    150  CA        14.3380   -1.6640   58.1050 C.3    98  ASN98       0.1785
    151  C         14.7340   -2.8020   59.0760 C.2    98  ASN98       0.2597
    152  O         14.6280   -2.6610   60.2830 O.2    98  ASN98      -0.2718
    153  CB        12.8080   -1.5650   58.0240 C.3    98  ASN98       0.1169
    154  CG        12.3540   -0.2770   57.3590 C.2    98  ASN98       0.2627
    155  OD1       12.7080    0.8250   57.7880 O.2    98  ASN98      -0.2716
    156  ND2       11.5980   -0.4080   56.2890 N.am   98  ASN98      -0.0877
    157  N         15.1780   -3.9420   58.5520 N.am   99  PHE99      -0.1976
    158  CA        15.5630   -5.0400   59.4590 C.3    99  PHE99       0.1639
    159  C         16.6900   -4.6320   60.4200 C.2    99  PHE99       0.2290
    160  O         16.6730   -4.9860   61.5970 O.2    99  PHE99      -0.2864
    161  CB        15.9450   -6.3090   58.6740 C.3    99  PHE99       0.0560
    162  CG        14.8200   -6.8770   57.8370 C.ar   99  PHE99      -0.0200
    163  CD1       13.5530   -7.1030   58.3770 C.ar   99  PHE99      -0.0042
    164  CD2       15.0210   -7.1680   56.5040 C.ar   99  PHE99      -0.0042
    165  CE1       12.5310   -7.6090   57.6000 C.ar   99  PHE99      -0.0003
    166  CE2       14.0100   -7.6830   55.7230 C.ar   99  PHE99      -0.0003
    167  CZ        12.7490   -7.8850   56.2610 C.ar   99  PHE99      -0.0000
    168  N         15.2750   -2.5250   63.3690 N.3   102  LEU102     -0.1231
    169  CA        14.6620   -3.2880   64.4590 C.3   102  LEU102      0.1693
    170  C         15.6860   -4.0580   65.2620 C.2   102  LEU102      0.2592
    171  O         15.6310   -4.0820   66.5020 O.2   102  LEU102     -0.2718
    172  CB        13.5500   -4.2150   63.9180 C.3   102  LEU102      0.0284
    173  CG        12.7890   -5.0780   64.9370 C.3   102  LEU102      0.0019
    174  CD1       12.2870   -4.2930   66.1200 C.3   102  LEU102      0.0001
    175  CD2       11.6140   -5.7650   64.2230 C.3   102  LEU102      0.0001
    176  N         16.6460   -4.6540   64.5860 N.am  103  SER103     -0.1952
    177  CA        17.7410   -5.3260   65.3030 C.3   103  SER103      0.1924
    178  C         18.5100   -4.3890   66.2680 C.2   103  SER103      0.2314
    179  O         18.7600   -4.7380   67.4190 O.2   103  SER103     -0.2863
    180  CB        18.6770   -5.9470   64.3000 C.3   103  SER103      0.2116
    181  OG        17.9310   -6.8480   63.4980 O.3   103  SER103     -0.2180
    182  N         16.3050   -3.7180   69.2760 N.3   106  ILE106     -0.1245
    183  CA        16.3550   -4.8850   70.1800 C.3   106  ILE106      0.1561
    184  C         17.6400   -4.8880   71.0120 C.2   106  ILE106      0.2260
    185  O         17.5950   -5.0480   72.2470 O.2   106  ILE106     -0.2867
    186  CB        16.2140   -6.2410   69.4800 C.3   106  ILE106      0.0252
    187  CG1       14.8550   -6.3570   68.7870 C.3   106  ILE106      0.0019
    188  CG2       16.3530   -7.4070   70.5480 C.3   106  ILE106      0.0019
    189  CD1       14.8300   -7.3440   67.6550 C.3   106  ILE106      0.0001
    190  N         22.0010  -11.0560   64.7450 N.3   130  PHE130     -0.1241
    191  CA        20.9020  -10.2580   64.1860 C.3   130  PHE130      0.1605
    192  C         21.2390   -9.8590   62.7460 C.2   130  PHE130      0.2264
    193  O         20.3280   -9.6450   61.9640 O.2   130  PHE130     -0.2867
    194  CB        20.6610   -9.0080   65.0100 C.3   130  PHE130      0.0534
    195  CG        19.9630   -9.2770   66.2890 C.ar  130  PHE130     -0.0203
    196  CD1       18.6110   -9.6820   66.3050 C.ar  130  PHE130     -0.0042
    197  CD2       20.6330   -9.1540   67.4630 C.ar  130  PHE130     -0.0042
    198  CE1       17.9720   -9.9770   67.5070 C.ar  130  PHE130     -0.0003
    199  CE2       19.9860   -9.4400   68.6870 C.ar  130  PHE130     -0.0003
    200  CZ        18.6550   -9.8430   68.6930 C.ar  130  PHE130     -0.0000
    201  N         20.1780  -12.9800   60.7800 N.3   133  LEU133     -0.1245
    202  CA        18.7070  -12.8760   60.8090 C.3   133  LEU133      0.1561
    203  C         18.1680  -11.9960   59.6910 C.2   133  LEU133      0.2260
    204  O         17.2140  -12.3280   58.9780 O.2   133  LEU133     -0.2867
    205  CB        18.3610  -12.0940   62.0550 C.3   133  LEU133      0.0270
    206  CG        17.5680  -12.8300   63.0210 C.3   133  LEU133      0.0019
    207  CD1       16.2690  -13.0480   62.2630 C.3   133  LEU133      0.0001
    208  CD2       18.4130  -14.0060   63.2000 C.3   133  LEU133      0.0001
    209  N         15.9250  -12.9810   56.4110 N.3   137  LEU137     -0.1245
    210  CA        14.6150  -12.3820   56.0940 C.3   137  LEU137      0.1561
    211  C         14.6580  -11.6970   54.7210 C.2   137  LEU137      0.2260
    212  O         13.6410  -11.5970   54.0570 O.2   137  LEU137     -0.2867
    213  CB        14.1670  -11.3880   57.1500 C.3   137  LEU137      0.0270
    214  CG        13.8900  -11.9790   58.5300 C.3   137  LEU137      0.0019
    215  CD1       13.7130  -10.9380   59.5910 C.3   137  LEU137      0.0001
    216  CD2       12.6000  -12.7960   58.3980 C.3   137  LEU137      0.0001
@<TRIPOS>BOND
     1   145   144    2
     2   142   143    1
     3   136   137    2
     4   136   135    1
     5   127   126    2
     6   134   135    1
     7   126   125    1
     8   144   143    1
     9   116   117    1
    10   135   138    1
    11   119   118    2
    12   143   146    1
    13   212   211    2
    14    27    26    1
    15   118   117    1
    16   118   124   am
    17   117   120    1
    18   124   125    1
    19   211   210    1
    20   125   128    1
    21    24    26   ar
    22    24    22   ar
    23   138   139    1
    24    26    25   ar
    25   146   148    1
    26   146   147    1
    27   166   167   ar
    28   166   164   ar
    29   128   129    1
    30   120   121    1
    31    22    21   ar
    32   139   141    1
    33   139   140    1
    34   210   209    1
    35   210   213    1
    36   111   110    2
    37   122   121    1
    38   167   165   ar
    39   156   154   am
    40   110   109    1
    41    25    23   ar
    42   164   162   ar
    43   103   102    2
    44   121   123    1
    45   149   150    1
    46   102   101    1
    47   108   109    1
    48   213   214    1
    49   129   130   ar
    50   129   131   ar
    51    21    23   ar
    52    21    20    1
    53   154   155    2
    54   154   153    1
    55   109   112    1
    56   165   163   ar
    57   130   132   ar
    58   162   163   ar
    59   162   161    1
    60   153   150    1
    61   131   133   ar
    62   150   151    1
    63   101   100    1
    64   101   104    1
    65    17    16    1
    66    17    20    1
    67    17    18    1
    68   216   214    1
    69   214   215    1
    70   157   151   am
    71   157   158    1
    72   104   105    1
    73   161   158    1
    74   112   113    1
    75   204   203    2
    76   132   133   ar
    77   151   152    2
    78    19    18    2
    79    18    28   am
    80   158   159    1
    81    46    48   ar
    82    46    44   ar
    83   203   202    1
    84   113   115    1
    85   113   114    1
    86   105   106    1
    87   105   107    1
    88    48    47   ar
    89     9    10    1
    90    10    11    1
    91    10    13    1
    92    28    29    1
    93    43    44    1
    94    43    40    1
    95    44    45   ar
    96   159   160    2
    97    12    11    2
    98    39    40    1
    99   201   202    1
   100   202   205    1
   101    15    13    1
   102    40    41    1
   103    47    45   ar
   104    13    14    1
   105    29    30    1
   106    29    32    1
   107    30    31    2
   108   193   192    2
   109   205   206    1
   110    37    38   ar
   111    37    35   ar
   112   207   206    1
   113    38    36   ar
   114    35    33   ar
   115    36    34   ar
   116    33    34   ar
   117    33    32    1
   118    41    42    2
   119    41    49   am
   120   192   191    1
   121   206   208    1
   122    49    50    1
   123   168   169    1
   124   181   180    1
   125     7     8    1
   126     7     6    1
   127   172   169    1
   128   172   173    1
   129    71    72   ar
   130    71    69   ar
   131   191   190    1
   132   191   194    1
   133   175   173    1
   134   180   177    1
   135    72    70   ar
   136     6     5    1
   137   169   170    1
   138    52    51    2
   139   176   170   am
   140   176   177    1
   141    50    51    1
   142    50    53    1
   143    55    57   ar
   144    55    54   ar
   145    57    58   ar
   146   173   174    1
   147    91    90    2
   148   194   195    1
   149    69    68   ar
   150   170   171    2
   151     4     3    2
   152    89    90    1
   153    89    88    1
   154   177   178    1
   155    54    53    1
   156    54    56   ar
   157    87    85    1
   158    58    60   ar
   159    58    56   ar
   160    70    68   ar
   161    60    62   ar
   162    90    92   am
   163    79    77    1
   164    56    59   ar
   165     5     2    1
   166    99    97    1
   167    68    67    1
   168    62    61   ar
   169     3     2    1
   170    59    61   ar
   171   178   179    2
   172   195   196   ar
   173   195   197   ar
   174   196   198   ar
   175     2     1    1
   176    92    93    1
   177    86    84    1
   178    85    84    1
   179    77    78    1
   180    77    74    1
   181    76    75    2
   182    93    94    1
   183    93    96    1
   184    81    84    1
   185    81    80    1
   186    81    82    1
   187    97    96    1
   188    83    82    2
   189    67    64    1
   190    75    80   am
   191    75    74    1
   192   197   199   ar
   193   198   200   ar
   194    95    94    2
   195   189   187    1
   196    96    98    1
   197    74    73    1
   198    66    65    2
   199    64    65    1
   200    64    63    1
   201   199   200   ar
   202   187   186    1
   203   182   183    1
   204   186   183    1
   205   186   188    1
   206   183   184    1
   207   184   185    2
