@<TRIPOS>MOLECULE
tmp/1xq7B00.pdb
 167 161 0 0 0
SMALL
GASTEIGER

@<TRIPOS>ATOM
      1  N         28.5850    2.3650    0.6500 N.3    57  ARG57      -0.1245
      2  CA        27.4680    1.4050    0.6860 C.3    57  ARG57       0.1563
      3  C         26.5970    1.6230    1.8910 C.2    57  ARG57       0.2260
      4  O         27.1050    1.6120    3.0390 O.2    57  ARG57      -0.2867
      5  CB        28.0300    0.0020    0.7350 C.3    57  ARG57       0.0307
      6  CG        27.0770   -1.0520    0.3320 C.3    57  ARG57       0.0489
      7  CD        27.7810   -2.2700   -0.0560 C.3    57  ARG57       0.2205
      8  NE        28.1210   -2.9100    1.1920 N.pl3  57  ARG57      -0.0865
      9  CZ        27.5400   -4.0040    1.6770 C.cat  57  ARG57       0.5346
     10  NH1       26.6130   -4.6360    1.0010 N.pl3  57  ARG57       0.1354
     11  NH2       27.9300   -4.4530    2.8620 N.pl3  57  ARG57       0.1354
     12  N         22.8380    0.6620    3.8050 N.3    59  ILE59      -0.1245
     13  CA        21.6700   -0.2380    3.8780 C.3    59  ILE59       0.1561
     14  C         20.8950    0.1590    5.1410 C.2    59  ILE59       0.2260
     15  O         21.3520   -0.0390    6.2500 O.2    59  ILE59      -0.2867
     16  CB        22.0700   -1.7300    3.9070 C.3    59  ILE59       0.0252
     17  CG1       22.8820   -2.0940    2.6620 C.3    59  ILE59       0.0019
     18  CG2       20.8120   -2.6550    4.0700 C.3    59  ILE59       0.0019
     19  CD1       23.3480   -3.6580    2.6350 C.3    59  ILE59       0.0001
     20  N         18.6350    0.2520    8.1360 N.3    61  ASN61      -0.1225
     21  CA        18.3470   -0.7680    9.1970 C.3    61  ASN61       0.1785
     22  C         19.4030   -1.8440    9.3220 C.2    61  ASN61       0.2597
     23  O         19.1290   -2.9890    9.7850 O.2    61  ASN61      -0.2718
     24  CB        16.9290   -1.3720    9.1120 C.3    61  ASN61       0.1169
     25  CG        15.8400   -0.3000    9.1150 C.2    61  ASN61       0.2627
     26  OD1       15.8920    0.6960    9.8700 O.2    61  ASN61      -0.2716
     27  ND2       14.8640   -0.4910    8.2740 N.am   61  ASN61      -0.0877
     28  N         20.6060   -1.5050    8.8870 N.am   62  PHE62      -0.1962
     29  CA        21.6920   -2.4700    8.9230 C.3    62  PHE62       0.1771
     30  C         22.9530   -1.7070    9.2020 C.2    62  PHE62       0.2619
     31  O         23.4560   -1.7760   10.3040 O.2    62  PHE62      -0.2715
     32  CB        21.7630   -3.3340    7.6150 C.3    62  PHE62       0.0574
     33  CG        23.0070   -4.1820    7.5020 C.ar   62  PHE62      -0.0200
     34  CD1       23.6000   -4.7310    8.6150 C.ar   62  PHE62      -0.0042
     35  CD2       23.5490   -4.5000    6.2610 C.ar   62  PHE62      -0.0042
     36  CE1       24.7700   -5.5440    8.5130 C.ar   62  PHE62      -0.0003
     37  CE2       24.7230   -5.3190    6.1470 C.ar   62  PHE62      -0.0003
     38  CZ        25.3050   -5.8460    7.2640 C.ar   62  PHE62      -0.0000
     39  N         23.4790   -0.9960    8.2260 N.am   63  MET63      -0.1977
     40  CA        24.7660   -0.3490    8.4440 C.3    63  MET63       0.1605
     41  C         25.1640    0.6330    7.3730 C.2    63  MET63       0.2287
     42  O         24.4510    0.7750    6.3600 O.2    63  MET63      -0.2864
     43  CB        25.8660   -1.3750    8.6390 C.3    63  MET63       0.0413
     44  CG        26.0210   -2.3300    7.4080 C.3    63  MET63       0.0598
     45  SD        27.2280   -1.6100    6.2170 S.3    63  MET63      -0.1393
     46  CE        26.3860   -1.8230    4.5800 C.3    63  MET63       0.0692
     47  N         28.8980    1.7820    5.3820 N.3    65  GLN65      -0.1245
     48  CA        30.2170    1.2430    5.2140 C.3    65  GLN65       0.1566
     49  C         31.0870    2.2480    4.4520 C.2    65  GLN65       0.2260
     50  O         30.7040    2.7470    3.4000 O.2    65  GLN65      -0.2867
     51  CB        30.1210   -0.0300    4.3620 C.3    65  GLN65       0.0367
     52  CG        31.5220   -0.5650    3.9110 C.3    65  GLN65       0.0905
     53  CD        31.4340   -1.9570    3.2350 C.2    65  GLN65       0.2608
     54  OE1       30.3370   -2.4710    3.0170 O.2    65  GLN65      -0.2717
     55  NE2       32.5630   -2.5530    2.9510 N.am   65  GLN65      -0.0878
     56  N         34.8840    2.2850   -3.5930 N.3    73  ASP73      -0.1225
     57  CA        33.7700    1.4120   -3.9920 C.3    73  ASP73       0.1805
     58  C         33.7440    0.0770   -3.2860 C.2    73  ASP73       0.2598
     59  O         32.9970   -0.8120   -3.6970 O.2    73  ASP73      -0.2718
     60  CB        33.6810    1.2570   -5.5350 C.3    73  ASP73       0.1424
     61  CG        34.8240    0.4200   -6.1280 C.2    73  ASP73       0.3668
     62  OD1       35.5140   -0.2780   -5.3470 O.co2  73  ASP73      -0.2456
     63  OD2       35.1200    0.4040   -7.3610 O.co2  73  ASP73      -0.2456
     64  N         34.5710   -0.0710   -2.2480 N.am   74  GLY74      -0.1942
     65  CA        34.6020   -1.2770   -1.4330 C.3    74  GLY74       0.2014
     66  C         35.6170   -2.3310   -1.8440 C.2    74  GLY74       0.2639
     67  O         35.7630   -3.3720   -1.1450 O.2    74  GLY74      -0.2714
     68  N         36.3660   -2.0640   -2.9230 N.am   75  THR75      -0.1950
     69  CA        37.3280   -3.0710   -3.3990 C.3    75  THR75       0.1897
     70  C         38.7370   -2.8090   -2.8900 C.2    75  THR75       0.2313
     71  O         39.6260   -3.6340   -3.1010 O.2    75  THR75      -0.2863
     72  CB        37.3910   -3.1560   -4.9680 C.3    75  THR75       0.1794
     73  OG1       37.9300   -1.9380   -5.5200 O.3    75  THR75      -0.2208
     74  CG2       35.9910   -3.3400   -5.6450 C.3    75  THR75       0.0378
     75  N         35.3920   -4.0450    8.1920 N.3   102  ALA102     -0.1231
     76  CA        34.9090   -4.8540    7.0690 C.3   102  ALA102      0.1694
     77  C         36.0560   -5.6990    6.6580 C.2   102  ALA102      0.2592
     78  O         37.1490   -5.4020    7.0640 O.2   102  ALA102     -0.2718
     79  CB        34.4390   -4.0060    5.9690 C.3   102  ALA102      0.0304
     80  N         35.8490   -6.8040    5.9180 N.am  103  ASN103     -0.1960
     81  CA        36.9470   -7.6060    5.5460 C.3   103  ASN103      0.1819
     82  C         36.5410   -8.5170    4.3890 C.2   103  ASN103      0.2621
     83  O         35.4100   -8.4310    3.8970 O.2   103  ASN103     -0.2715
     84  CB        37.4500   -8.4260    6.7610 C.3   103  ASN103      0.1195
     85  CG        36.4060   -9.3650    7.3060 C.2   103  ASN103      0.2630
     86  OD1       35.7210  -10.0730    6.5430 O.2   103  ASN103     -0.2716
     87  ND2       36.3040   -9.4360    8.6100 N.am  103  ASN103     -0.0877
     88  N         37.4330   -9.4160    3.9930 N.am  104  ALA104     -0.1963
     89  CA        37.0960  -10.4210    2.9780 C.3   104  ALA104      0.1728
     90  C         37.5080  -11.8260    3.4670 C.2   104  ALA104      0.2616
     91  O         38.3900  -12.4720    2.8780 O.2   104  ALA104     -0.2715
     92  CB        37.7610  -10.0490    1.6450 C.3   104  ALA104      0.0334
     93  N         36.8640  -12.3000    4.5510 N.am  105  GLY105     -0.1955
     94  CA        37.2820  -13.5060    5.2370 C.3   105  GLY105      0.1869
     95  C         38.2850  -13.2480    6.3460 C.2   105  GLY105      0.2309
     96  O         38.6710  -12.0840    6.5700 O.2   105  GLY105     -0.2863
     97  N         38.7900   -0.3870    5.5870 N.3   112  GLN112     -0.1245
     98  CA        37.3340   -0.2910    5.5180 C.3   112  GLN112      0.1566
     99  C         36.6160   -0.6870    6.8020 C.2   112  GLN112      0.2260
    100  O         36.9670   -1.7010    7.4250 O.2   112  GLN112     -0.2867
    101  CB        36.7840   -1.1200    4.3430 C.3   112  GLN112      0.0367
    102  CG        37.1990   -0.6440    2.9040 C.3   112  GLN112      0.0905
    103  CD        36.4280   -1.3600    1.8440 C.2   112  GLN112      0.2608
    104  OE1       35.1970   -1.3890    1.8870 O.2   112  GLN112     -0.2717
    105  NE2       37.1290   -1.9480    0.8790 N.am  112  GLN112     -0.0878
    106  N         32.5990   -0.4220    9.1720 N.3   114  PHE114     -0.1241
    107  CA        31.1720   -0.0760    9.2170 C.3   114  PHE114      0.1605
    108  C         30.6540    0.3490   10.5820 C.2   114  PHE114      0.2264
    109  O         31.2320   -0.0200   11.5960 O.2   114  PHE114     -0.2867
    110  CB        30.3060   -1.1850    8.6920 C.3   114  PHE114      0.0534
    111  CG        30.4610   -2.4590    9.4020 C.ar  114  PHE114     -0.0203
    112  CD1       31.5940   -3.2670    9.1870 C.ar  114  PHE114     -0.0042
    113  CD2       29.4290   -2.9220   10.2340 C.ar  114  PHE114     -0.0042
    114  CE1       31.6920   -4.5270    9.7930 C.ar  114  PHE114     -0.0003
    115  CE2       29.5330   -4.2010   10.8580 C.ar  114  PHE114     -0.0003
    116  CZ        30.6690   -4.9690   10.6410 C.ar  114  PHE114     -0.0000
    117  N         24.7060  -11.7420   13.7870 N.3   122  TRP122     -0.1227
    118  CA        25.2300  -12.7730   12.8800 C.3   122  TRP122      0.1737
    119  C         26.6170  -12.3850   12.3830 C.2   122  TRP122      0.2595
    120  O         27.2260  -13.1440   11.6210 O.2   122  TRP122     -0.2718
    121  CB        24.2760  -13.0000   11.6790 C.3   122  TRP122      0.0564
    122  CG        24.0520  -11.7140   10.8900 C.ar  122  TRP122      0.0003
    123  CD1       24.8190  -11.2340    9.8420 C.ar  122  TRP122      0.0946
    124  CD2       23.0560  -10.7060   11.1350 C.ar  122  TRP122      0.0152
    125  NE1       24.3150  -10.0380    9.3820 N.ar  122  TRP122     -0.2442
    126  CE2       23.2530   -9.6720   10.1710 C.ar  122  TRP122      0.0810
    127  CE3       22.0190  -10.5570   12.0720 C.ar  122  TRP122      0.0012
    128  CZ2       22.4380   -8.4900   10.1320 C.ar  122  TRP122      0.0191
    129  CZ3       21.1870   -9.3780   12.0160 C.ar  122  TRP122      0.0001
    130  CH2       21.4090   -8.3810   11.0500 C.ar  122  TRP122      0.0015
    131  N         27.0950  -11.1820   12.7700 N.am  123  LEU123     -0.1980
    132  CA        28.4640  -10.7700   12.4700 C.3   123  LEU123      0.1596
    133  C         29.4380  -11.1270   13.5890 C.2   123  LEU123      0.2287
    134  O         30.6800  -11.0610   13.4060 O.2   123  LEU123     -0.2864
    135  CB        28.5750   -9.2410   12.1110 C.3   123  LEU123      0.0297
    136  CG        27.6560   -8.8160   10.9370 C.3   123  LEU123      0.0022
    137  CD1       27.6300   -7.3390   10.6930 C.3   123  LEU123      0.0001
    138  CD2       27.9930   -9.5350    9.6240 C.3   123  LEU123      0.0001
    139  N         33.0770  -12.8990   13.3570 N.3   126  ARG126     -0.1231
    140  CA        33.5850  -12.6710   11.9930 C.3   126  ARG126      0.1694
    141  C         34.2280  -11.2920   11.7800 C.2   126  ARG126      0.2592
    142  O         35.0580  -11.1410   10.8590 O.2   126  ARG126     -0.2718
    143  CB        32.4230  -12.7900   11.0060 C.3   126  ARG126      0.0321
    144  CG        31.7390  -14.1780   11.0330 C.3   126  ARG126      0.0489
    145  CD        32.2480  -15.0890   10.0110 C.3   126  ARG126      0.2205
    146  NE        31.9950  -16.4860   10.3490 N.pl3 126  ARG126     -0.0865
    147  CZ        30.9380  -17.1670    9.9450 C.cat 126  ARG126      0.5346
    148  NH1       29.9960  -16.5640    9.2160 N.pl3 126  ARG126      0.1354
    149  NH2       30.8180  -18.4470   10.2810 N.pl3 126  ARG126      0.1354
    150  N         33.8180  -10.2910   12.5680 N.am  127  HIS127     -0.1976
    151  CA        34.3570   -8.9390   12.3680 C.3   127  HIS127      0.1656
    152  C         34.9010   -8.3380   13.6200 C.2   127  HIS127      0.2291
    153  O         34.2900   -8.4750   14.6630 O.2   127  HIS127     -0.2864
    154  CB        33.2860   -8.0160   11.8030 C.3   127  HIS127      0.0771
    155  CG        32.8460   -8.4490   10.4610 C.ar  127  HIS127      0.0820
    156  ND1       33.3130   -7.8610    9.3060 N.ar  127  HIS127     -0.2267
    157  CD2       32.0890   -9.5090   10.0810 C.ar  127  HIS127      0.1154
    158  CE1       32.8540   -8.5490    8.2720 C.ar  127  HIS127      0.1986
    159  NE2       32.1140   -9.5470    8.7120 N.ar  127  HIS127     -0.2212
    160  N         23.6050   -1.7350   -6.0680 N.3   151  ASN151     -0.1240
    161  CA        24.5670   -2.2020   -5.0590 C.3   151  ASN151      0.1653
    162  C         24.6050   -1.3010   -3.8150 C.2   151  ASN151      0.2266
    163  O         25.6800   -1.0650   -3.2570 O.2   151  ASN151     -0.2867
    164  CB        25.9970   -2.3650   -5.6390 C.3   151  ASN151      0.1155
    165  CG        26.0310   -3.1650   -6.9580 C.2   151  ASN151      0.2627
    166  OD1       26.7990   -2.8360   -7.8790 O.2   151  ASN151     -0.2716
    167  ND2       25.2070   -4.2030   -7.0540 N.am  151  ASN151     -0.0877
@<TRIPOS>BOND
     1   166   165    2
     2    63    61   ar
     3   167   165   am
     4   165   164    1
     5    61    60    1
     6    61    62   ar
     7   160   161    1
     8    74    72    1
     9   164   161    1
    10    60    57    1
    11    73    72    1
    12   161   162    1
    13    72    69    1
    14    57    56    1
    15    57    58    1
    16   162   163    2
    17    59    58    2
    18    69    68    1
    19    69    70    1
    20    58    64   am
    21    71    70    2
    22    68    66   am
    23    64    65    1
    24    66    65    1
    25    66    67    2
    26     7     6    1
    27     7     8    1
    28     6     5    1
    29     1     2    1
    30     2     5    1
    31     2     3    1
    32   105   103   am
    33    10     9    1
    34     8     9    2
    35    92    89    1
    36     9    11    1
    37   103   104    2
    38   103   102    1
    39     3     4    2
    40    19    17    1
    41    17    16    1
    42    91    90    2
    43   102   101    1
    44    55    53   am
    45    89    90    1
    46    89    88    1
    47    54    53    2
    48    53    52    1
    49    50    49    2
    50    90    93   am
    51    12    13    1
    52    13    16    1
    53    13    14    1
    54    83    82    2
    55    16    18    1
    56    52    51    1
    57    88    82   am
    58   101    98    1
    59    51    48    1
    60    82    81    1
    61    49    48    1
    62    93    94    1
    63    46    45    1
    64    14    15    2
    65    48    47    1
    66    94    95    1
    67    98    97    1
    68    98    99    1
    69    81    80    1
    70    81    84    1
    71    80    77   am
    72    79    76    1
    73    37    35   ar
    74    37    38   ar
    75    45    44    1
    76    35    33   ar
    77    95    96    2
    78    42    41    2
    79    86    85    2
    80    77    78    2
    81    77    76    1
    82    84    85    1
    83    99   100    2
    84    76    75    1
    85    38    36   ar
    86    85    87   am
    87    41    40    1
    88    44    43    1
    89    33    32    1
    90    33    34   ar
    91    32    29    1
    92    20    21    1
    93    39    40    1
    94    39    30   am
    95   158   159   ar
    96   158   156   ar
    97    27    25   am
    98    40    43    1
    99    36    34   ar
   100   110   107    1
   101   110   111    1
   102   159   157   ar
   103    28    29    1
   104    28    22   am
   105    29    30    1
   106    24    25    1
   107    24    21    1
   108    25    26    2
   109   106   107    1
   110   112   111   ar
   111   112   114   ar
   112    21    22    1
   113    30    31    2
   114   148   147    1
   115   107   108    1
   116   156   155   ar
   117    22    23    2
   118   125   123   ar
   119   125   126   ar
   120   111   113   ar
   121   138   136    1
   122   114   116   ar
   123   123   122   ar
   124   147   149    1
   125   147   146    2
   126   145   146    1
   127   145   144    1
   128   157   155   ar
   129   128   126   ar
   130   128   130   ar
   131   126   124   ar
   132   113   115   ar
   133   155   154    1
   134   108   109    2
   135   116   115   ar
   136   137   136    1
   137   142   141    2
   138   122   124   ar
   139   122   121    1
   140   136   135    1
   141   143   144    1
   142   143   140    1
   143   130   129   ar
   144   124   127   ar
   145   120   119    2
   146   121   118    1
   147   141   140    1
   148   141   150   am
   149   154   151    1
   150   140   139    1
   151   129   127   ar
   152   135   132    1
   153   151   150    1
   154   151   152    1
   155   119   131   am
   156   119   118    1
   157   132   131    1
   158   132   133    1
   159   118   117    1
   160   134   133    2
   161   152   153    2
