@<TRIPOS>MOLECULE
tmp/1xqcC00.pdb
 210 196 0 0 0
SMALL
GASTEIGER

@<TRIPOS>ATOM
      1  N        -21.4860   40.3630   12.3760 N.3    27  MET27      -0.1245
      2  CA       -20.8460   39.1730   12.9570 C.3    27  MET27       0.1570
      3  C        -20.4770   38.0690   11.9310 C.2    27  MET27       0.2261
      4  O        -19.3990   37.4660   12.0190 O.2    27  MET27      -0.2867
      5  CB       -21.7440   38.6070   14.0740 C.3    27  MET27       0.0387
      6  CG       -21.0300   37.7320   15.1080 C.3    27  MET27       0.0595
      7  SD       -19.4960   38.4370   15.8260 S.3    27  MET27      -0.1393
      8  CE       -18.5460   36.9430   16.0720 C.3    27  MET27       0.0692
      9  N        -17.2850   39.3240   10.2280 N.3    30  LEU30      -0.1231
     10  CA       -16.1050   39.2250   11.0780 C.3    30  LEU30       0.1693
     11  C        -15.6850   37.7840   11.2300 C.2    30  LEU30       0.2592
     12  O        -14.4890   37.4640   11.2870 O.2    30  LEU30      -0.2718
     13  CB       -16.4120   39.8410   12.4410 C.3    30  LEU30       0.0284
     14  CG       -16.7740   41.3150   12.4410 C.3    30  LEU30       0.0019
     15  CD1      -17.0180   41.7290   13.8460 C.3    30  LEU30       0.0001
     16  CD2      -15.7080   42.2280   11.7880 C.3    30  LEU30       0.0001
     17  N        -16.6880   36.9050   11.2650 N.am   31  THR31      -0.1953
     18  CA       -16.4900   35.4880   11.4410 C.3    31  THR31       0.1897
     19  C        -15.7910   34.9520   10.2230 C.2    31  THR31       0.2313
     20  O        -14.8640   34.1920   10.3490 O.2    31  THR31      -0.2863
     21  CB       -17.8590   34.7760   11.6690 C.3    31  THR31       0.1794
     22  OG1      -18.2560   34.9390   13.0260 O.3    31  THR31      -0.2208
     23  CG2      -17.7620   33.2660   11.5060 C.3    31  THR31       0.0378
     24  N        -14.0210   36.6680    8.0560 N.3    33  LEU33      -0.1231
     25  CA       -12.7290   37.3400    8.0420 C.3    33  LEU33       0.1693
     26  C        -11.7000   36.5740    8.9080 C.2    33  LEU33       0.2592
     27  O        -10.6760   36.1190    8.4100 O.2    33  LEU33      -0.2718
     28  CB       -12.9350   38.8060    8.4750 C.3    33  LEU33       0.0284
     29  CG       -11.6830   39.6590    8.6610 C.3    33  LEU33       0.0019
     30  CD1      -10.9340   39.7140    7.3290 C.3    33  LEU33       0.0001
     31  CD2      -12.0640   41.0290    9.2120 C.3    33  LEU33       0.0001
     32  N        -12.0080   36.4140   10.1860 N.am   34  ALA34      -0.1966
     33  CA       -11.1750   35.7050   11.1830 C.3    34  ALA34       0.1728
     34  C        -10.8460   34.2810   10.7740 C.2    34  ALA34       0.2616
     35  O         -9.6810   33.8340   10.8980 O.2    34  ALA34      -0.2715
     36  CB       -11.8810   35.6790   12.5200 C.3    34  ALA34       0.0334
     37  N        -11.8720   33.5550   10.3180 N.am   35  ASP35      -0.1971
     38  CA       -11.6700   32.2030    9.7740 C.3    35  ASP35       0.1709
     39  C        -10.6660   32.1550    8.6540 C.2    35  ASP35       0.2293
     40  O         -9.9460   31.2000    8.5390 O.2    35  ASP35      -0.2864
     41  CB       -12.9880   31.5860    9.2760 C.3    35  ASP35       0.1436
     42  CG       -13.8970   31.1620   10.4240 C.2    35  ASP35       0.3671
     43  OD1      -13.4410   31.2210   11.6050 O.co2  35  ASP35      -0.2456
     44  OD2      -15.0900   30.7720   10.2520 O.co2  35  ASP35      -0.2456
     45  N         -8.2070   34.6490    8.1880 N.3    37  GLU37      -0.1231
     46  CA        -6.8840   35.0450    8.7660 C.3    37  GLU37       0.1699
     47  C         -6.1870   33.9260    9.5140 C.2    37  GLU37       0.2592
     48  O         -4.9200   33.9140    9.6140 O.2    37  GLU37      -0.2718
     49  CB        -7.0110   36.2090    9.7420 C.3    37  GLU37       0.0402
     50  CG        -7.6740   37.4370    9.1870 C.3    37  GLU37       0.1161
     51  CD        -7.8770   38.4640   10.2640 C.2    37  GLU37       0.3649
     52  OE1       -6.9360   39.2170   10.5660 O.co2  37  GLU37      -0.2457
     53  OE2       -8.9870   38.5120   10.8010 O.co2  37  GLU37      -0.2457
     54  N         -6.9820   32.9710   10.0190 N.am   38  LEU38      -0.1980
     55  CA        -6.4300   31.8790   10.8240 C.3    38  LEU38       0.1596
     56  C         -5.4660   30.9850   10.0280 C.2    38  LEU38       0.2287
     57  O         -4.3870   30.6130   10.5250 O.2    38  LEU38      -0.2864
     58  CB        -7.5450   31.0810   11.4870 C.3    38  LEU38       0.0297
     59  CG        -7.1600   30.0850   12.5880 C.3    38  LEU38       0.0022
     60  CD1       -6.7430   30.7870   13.8530 C.3    38  LEU38       0.0001
     61  CD2       -8.3440   29.1810   12.8610 C.3    38  LEU38       0.0001
     62  N         -4.7300   32.1310   19.7050 N.3    67  TRP67      -0.1227
     63  CA        -5.1320   32.6160   18.3800 C.3    67  TRP67       0.1737
     64  C         -5.9320   33.9310   18.4460 C.2    67  TRP67       0.2595
     65  O         -5.7380   34.8230   17.5770 O.2    67  TRP67      -0.2718
     66  CB        -5.8840   31.5500   17.5880 C.3    67  TRP67       0.0564
     67  CG        -7.1940   31.2110   18.1800 C.ar   67  TRP67       0.0003
     68  CD1       -7.4460   30.2810   19.1270 C.ar   67  TRP67       0.0946
     69  CD2       -8.4410   31.7920   17.8510 C.ar   67  TRP67       0.0152
     70  NE1       -8.7870   30.2520   19.4300 N.ar   67  TRP67      -0.2442
     71  CE2       -9.4210   31.1750   18.6450 C.ar   67  TRP67       0.0810
     72  CE3       -8.8380   32.7910   16.9670 C.ar   67  TRP67       0.0012
     73  CZ2      -10.7550   31.5470   18.6010 C.ar   67  TRP67       0.0191
     74  CZ3      -10.1660   33.1420   16.9310 C.ar   67  TRP67       0.0001
     75  CH2      -11.0980   32.5160   17.7240 C.ar   67  TRP67       0.0015
     76  N         -6.7680   34.0860   19.4610 N.am   68  LEU68      -0.1980
     77  CA        -7.7000   35.2470   19.5190 C.3    68  LEU68       0.1596
     78  C         -6.9860   36.5240   19.9690 C.2    68  LEU68       0.2287
     79  O         -7.2830   37.5680   19.4670 O.2    68  LEU68      -0.2864
     80  CB        -8.9380   34.9900   20.4010 C.3    68  LEU68       0.0297
     81  CG        -9.9060   36.2070   20.5240 C.3    68  LEU68       0.0022
     82  CD1      -10.3670   36.6830   19.1890 C.3    68  LEU68       0.0001
     83  CD2      -11.1630   35.9480   21.4340 C.3    68  LEU68       0.0001
     84  N         -5.3180   37.5910   16.9110 N.3    71  LEU71      -0.1231
     85  CA        -6.2180   38.3180   16.0440 C.3    71  LEU71       0.1693
     86  C         -6.3990   39.7260   16.5740 C.2    71  LEU71       0.2591
     87  O         -6.4400   40.6850   15.8050 O.2    71  LEU71      -0.2718
     88  CB        -7.5620   37.5940   15.8460 C.3    71  LEU71       0.0284
     89  CG        -7.5980   36.3720   14.9600 C.3    71  LEU71       0.0019
     90  CD1       -9.1630   36.0560   14.7530 C.3    71  LEU71       0.0001
     91  CD2       -6.9770   36.5960   13.6080 C.3    71  LEU71       0.0001
     92  N         -6.4650   39.8670   17.8850 N.am   72  MET72      -0.1979
     93  CA        -6.6730   41.1460   18.5220 C.3    72  MET72       0.1605
     94  C         -5.4710   42.1210   18.4680 C.2    72  MET72       0.2287
     95  O         -5.6390   43.2880   18.2380 O.2    72  MET72      -0.2864
     96  CB        -7.1140   40.9120   19.9460 C.3    72  MET72       0.0413
     97  CG        -8.6050   40.3980   20.0360 C.3    72  MET72       0.0598
     98  SD        -8.8770   40.0400   21.7350 S.3    72  MET72      -0.1393
     99  CE       -10.7300   39.9020   21.6860 C.3    72  MET72       0.0692
    100  N         -5.2260   43.4770   14.9750 N.3    75  LEU75      -0.1245
    101  CA        -6.3110   44.4000   14.7060 C.3    75  LEU75       0.1561
    102  C         -5.9140   45.7540   15.2650 C.2    75  LEU75       0.2260
    103  O         -6.1510   46.8150   14.6720 O.2    75  LEU75      -0.2867
    104  CB        -7.5750   43.8880   15.3950 C.3    75  LEU75       0.0270
    105  CG        -8.6760   44.9240   15.4820 C.3    75  LEU75       0.0019
    106  CD1       -9.0010   45.3690   14.1200 C.3    75  LEU75       0.0001
    107  CD2       -9.8830   44.2950   16.2190 C.3    75  LEU75       0.0001
    108  N         -3.0290   47.6600   13.1820 N.3    78  ARG78      -0.1245
    109  CA        -3.6140   48.3520   12.0300 C.3    78  ARG78       0.1563
    110  C         -4.7380   49.3600   12.3470 C.2    78  ARG78       0.2260
    111  O         -5.1510   50.1080   11.4540 O.2    78  ARG78      -0.2867
    112  CB        -4.0660   47.3560   10.9600 C.3    78  ARG78       0.0307
    113  CG        -5.3270   46.5630   11.2680 C.3    78  ARG78       0.0489
    114  CD        -5.7050   45.6170   10.1570 C.3    78  ARG78       0.2205
    115  NE        -6.7820   44.7540   10.6030 N.pl3  78  ARG78      -0.0865
    116  CZ        -6.6130   43.5610   11.1750 C.cat  78  ARG78       0.5346
    117  NH1       -5.3910   42.9670   11.3140 N.pl3  78  ARG78       0.1354
    118  NH2       -7.6950   42.9220   11.5470 N.pl3  78  ARG78       0.1354
    119  N        -11.0670   46.5880   11.0490 N.3    88  PHE88      -0.1241
    120  CA       -11.1630   45.1390   10.8490 C.3    88  PHE88       0.1605
    121  C        -10.5880   44.7240    9.5120 C.2    88  PHE88       0.2264
    122  O         -9.8840   43.7270    9.4300 O.2    88  PHE88      -0.2867
    123  CB       -12.5860   44.6160   10.9880 C.3    88  PHE88       0.0534
    124  CG       -13.0430   44.5820   12.3790 C.ar   88  PHE88      -0.0203
    125  CD1      -12.7650   43.4960   13.1940 C.ar   88  PHE88      -0.0042
    126  CD2      -13.6880   45.6750   12.9200 C.ar   88  PHE88      -0.0042
    127  CE1      -13.1840   43.4990   14.5060 C.ar   88  PHE88      -0.0003
    128  CE2      -14.0750   45.6690   14.2170 C.ar   88  PHE88      -0.0003
    129  CZ       -13.8360   44.5950   14.9980 C.ar   88  PHE88      -0.0000
    130  N        -22.8570   44.9310   16.9530 N.3   102  VAL102     -0.1245
    131  CA       -22.2370   43.6020   17.0290 C.3   102  VAL102      0.1561
    132  C        -22.5010   43.0370   18.4230 C.2   102  VAL102      0.2260
    133  O        -21.6830   43.2310   19.3260 O.2   102  VAL102     -0.2867
    134  CB       -20.7090   43.6350   16.7670 C.3   102  VAL102      0.0252
    135  CG1      -20.1420   42.2050   16.7090 C.3   102  VAL102      0.0019
    136  CG2      -20.3890   44.3950   15.4890 C.3   102  VAL102      0.0019
    137  N        -22.3340   40.8390   21.3900 N.3   104  GLY104     -0.1210
    138  CA       -21.1160   40.1070   21.7350 C.3   104  GLY104      0.1956
    139  C        -19.8450   40.9460   21.7160 C.2   104  GLY104      0.2611
    140  O        -18.7490   40.4240   21.9180 O.2   104  GLY104     -0.2717
    141  N        -19.9830   42.2510   21.4910 N.am  105  MET105     -0.1979
    142  CA       -18.8300   43.1320   21.3590 C.3   105  MET105      0.1605
    143  C        -19.0080   44.4160   22.1740 C.2   105  MET105      0.2287
    144  O        -18.3500   45.4190   21.9280 O.2   105  MET105     -0.2864
    145  CB       -18.5870   43.4430   19.8750 C.3   105  MET105      0.0413
    146  CG       -17.1110   43.6150   19.5350 C.3   105  MET105      0.0598
    147  SD       -16.6410   43.5680   17.7700 S.3   105  MET105     -0.1393
    148  CE       -14.9230   43.8850   18.0280 C.3   105  MET105      0.0692
    149  N        -15.7290   44.6690   24.6070 N.3   108  ILE108     -0.1245
    150  CA       -14.3770   44.5780   24.0650 C.3   108  ILE108      0.1561
    151  C        -14.0670   45.6130   22.9880 C.2   108  ILE108      0.2260
    152  O        -12.9020   45.9420   22.7720 O.2   108  ILE108     -0.2867
    153  CB       -14.0560   43.1460   23.5900 C.3   108  ILE108      0.0252
    154  CG1      -15.0870   42.6470   22.5610 C.3   108  ILE108      0.0019
    155  CG2      -13.9990   42.2060   24.7730 C.3   108  ILE108      0.0019
    156  CD1      -14.4920   41.7790   21.5140 C.3   108  ILE108      0.0001
    157  N        -10.4340   47.1700   22.9840 N.3   112  LEU112     -0.1245
    158  CA        -9.6200   47.2230   21.7890 C.3   112  LEU112      0.1561
    159  C         -9.2790   48.6520   21.3650 C.2   112  LEU112      0.2260
    160  O         -8.1120   48.9340   21.0410 O.2   112  LEU112     -0.2867
    161  CB       -10.3170   46.4750   20.6590 C.3   112  LEU112      0.0270
    162  CG       -10.4090   44.9790   20.8910 C.3   112  LEU112      0.0019
    163  CD1      -11.4880   44.4500   19.9840 C.3   112  LEU112      0.0001
    164  CD2       -9.0710   44.3050   20.5990 C.3   112  LEU112      0.0001
    165  N        -13.9620   38.0680   24.9220 N.3   203  GLY203     -0.1225
    166  CA       -14.3020   37.6140   23.5880 C.3   203  GLY203      0.1811
    167  C        -14.5980   36.1220   23.4170 C.2   203  GLY203      0.2280
    168  O        -15.5420   35.7670   22.7180 O.2   203  GLY203     -0.2866
    169  N        -17.9540   34.9090   24.5130 N.3   206  HIS206     -0.1226
    170  CA       -18.9240   35.0880   23.4530 C.3   206  HIS206      0.1752
    171  C        -18.8120   34.0580   22.3280 C.2   206  HIS206      0.2595
    172  O        -19.7950   33.3940   22.0010 O.2   206  HIS206     -0.2718
    173  CB       -18.8670   36.4970   22.8610 C.3   206  HIS206      0.0759
    174  CG       -19.9450   36.7330   21.8590 C.ar  206  HIS206      0.0818
    175  ND1      -19.7330   36.6210   20.5010 N.ar  206  HIS206     -0.2268
    176  CD2      -21.2710   36.9560   22.0170 C.ar  206  HIS206      0.1154
    177  CE1      -20.8720   36.8260   19.8640 C.ar  206  HIS206      0.1986
    178  NE2      -21.8190   37.0290   20.7600 N.ar  206  HIS206     -0.2212
    179  N        -17.6330   33.9460   21.7180 N.am  207  LEU207     -0.1980
    180  CA       -17.4290   33.0440   20.5950 C.3   207  LEU207      0.1596
    181  C        -17.7650   31.6010   20.9690 C.2   207  LEU207      0.2287
    182  O        -18.2640   30.8440   20.1430 O.2   207  LEU207     -0.2864
    183  CB       -15.9850   33.1130   20.0710 C.3   207  LEU207      0.0297
    184  CG       -15.4250   34.4360   19.5050 C.3   207  LEU207      0.0022
    185  CD1      -13.9680   34.2290   19.0640 C.3   207  LEU207      0.0001
    186  CD2      -16.2570   34.9510   18.3490 C.3   207  LEU207      0.0001
    187  N        -21.7230   31.0710   20.8940 N.3   210  MET210     -0.1245
    188  CA       -22.3400   31.2310   19.5720 C.3   210  MET210      0.1570
    189  C        -22.7260   29.8710   18.9780 C.2   210  MET210      0.2261
    190  O        -23.2830   29.7920   17.8750 O.2   210  MET210     -0.2867
    191  CB       -21.3570   31.9080   18.6190 C.3   210  MET210      0.0387
    192  CG       -21.5590   33.3680   18.4300 C.3   210  MET210      0.0595
    193  SD       -20.2140   33.9490   17.4220 S.3   210  MET210     -0.1393
    194  CE       -20.8560   33.7330   15.7710 C.3   210  MET210      0.0692
    195  N        -11.9300   23.3420   18.4650 N.3   212  LEU212     -0.1245
    196  CA       -10.7520   24.0990   18.0300 C.3   212  LEU212      0.1561
    197  C         -9.4440   23.3210   18.0360 C.2   212  LEU212      0.2260
    198  O         -8.6870   23.4430   17.0900 O.2   212  LEU212     -0.2867
    199  CB       -10.5850   25.3860   18.8380 C.3   212  LEU212      0.0270
    200  CG       -10.9260   26.6250   18.0250 C.3   212  LEU212      0.0019
    201  CD1      -12.2110   27.2570   18.5140 C.3   212  LEU212      0.0001
    202  CD2       -9.7700   27.6070   18.1050 C.3   212  LEU212      0.0001
    203  N         -9.4340   21.1850   15.0420 N.3   215  LEU215     -0.1245
    204  CA        -9.4070   22.0110   13.8420 C.3   215  LEU215      0.1561
    205  C         -8.0270   22.5790   13.5610 C.2   215  LEU215      0.2260
    206  O         -7.6240   22.6580   12.3950 O.2   215  LEU215     -0.2867
    207  CB       -10.3860   23.1620   13.9840 C.3   215  LEU215      0.0270
    208  CG       -10.4420   24.1920   12.8480 C.3   215  LEU215      0.0019
    209  CD1      -10.6440   23.5620   11.4820 C.3   215  LEU215      0.0001
    210  CD2      -11.5780   25.1590   13.1460 C.3   215  LEU215      0.0001
@<TRIPOS>BOND
     1    30    29    1
     2    25    24    1
     3    25    28    1
     4    25    26    1
     5    45    46    1
     6    27    26    2
     7    28    29    1
     8    40    39    2
     9    39    38    1
    10    29    31    1
    11    46    47    1
    12    46    49    1
    13    26    32   am
    14    50    49    1
    15    50    51    1
    16    41    38    1
    17    41    42    1
    18   122   121    2
    19   121   120    1
    20    47    48    2
    21    47    54   am
    22    38    37    1
    23    54    55    1
    24    56    57    2
    25    56    55    1
    26   114   115    1
    27   114   113    1
    28    32    33    1
    29    19    20    2
    30    19    18    1
    31     9    10    1
    32    44    42   ar
    33    51    52   ar
    34    51    53   ar
    35    37    34   am
    36    42    43   ar
    37   115   116    2
    38    34    35    2
    39    34    33    1
    40    55    58    1
    41   120   123    1
    42   120   119    1
    43   112   113    1
    44   112   109    1
    45   123   124    1
    46    10    11    1
    47    10    13    1
    48   116   117    1
    49   116   118    1
    50    33    36    1
    51    11    17   am
    52    11    12    2
    53    17    18    1
    54    18    21    1
    55   111   110    2
    56   209   208    1
    57    58    59    1
    58    23    21    1
    59    21    22    1
    60    16    14    1
    61     3     4    2
    62     3     2    1
    63   109   110    1
    64   109   108    1
    65     1     2    1
    66   124   126   ar
    67   124   125   ar
    68   206   205    2
    69    14    13    1
    70    14    15    1
    71    59    61    1
    72    59    60    1
    73   208   210    1
    74   208   207    1
    75   126   128   ar
    76     2     5    1
    77   125   127   ar
    78   205   204    1
    79    91    89    1
    80   204   207    1
    81   204   203    1
    82     5     6    1
    83   106   105    1
    84   128   129   ar
    85   127   129   ar
    86   103   102    2
    87   101   100    1
    88   101   102    1
    89   101   104    1
    90    90    89    1
    91    89    88    1
    92     6     7    1
    93   104   105    1
    94   105   107    1
    95   136   134    1
    96   194   193    1
    97    87    86    2
    98     7     8    1
    99    88    85    1
   100    85    86    1
   101    85    84    1
   102    86    92   am
   103   135   134    1
   104   134   131    1
   105    74    72   ar
   106    74    75   ar
   107   130   131    1
   108    72    69   ar
   109   131   132    1
   110   198   197    2
   111   193   192    1
   112    65    64    2
   113    66    67    1
   114    66    63    1
   115    75    73   ar
   116   147   148    1
   117   147   146    1
   118    69    67   ar
   119    69    71   ar
   120   190   189    2
   121    92    93    1
   122   200   202    1
   123   200   201    1
   124   200   199    1
   125   196   197    1
   126   196   195    1
   127   196   199    1
   128    67    68   ar
   129    95    94    2
   130   186   184    1
   131    63    64    1
   132    63    62    1
   133   132   133    2
   134   192   191    1
   135    64    76   am
   136    94    93    1
   137    93    96    1
   138    73    71   ar
   139   191   188    1
   140    71    70   ar
   141   189   188    1
   142   185   184    1
   143    68    70   ar
   144    82    81    1
   145    76    77    1
   146    79    78    2
   147   184   183    1
   148    77    78    1
   149    77    80    1
   150   146   145    1
   151   188   187    1
   152   177   175   ar
   153   177   178   ar
   154   145   142    1
   155    96    97    1
   156   163   162    1
   157    97    98    1
   158   183   180    1
   159   182   181    2
   160    80    81    1
   161   175   174   ar
   162    81    83    1
   163   180   181    1
   164   180   179    1
   165   164   162    1
   166   161   162    1
   167   161   158    1
   168   178   176   ar
   169   160   159    2
   170   142   141    1
   171   142   143    1
   172   159   158    1
   173   137   138    1
   174   141   139   am
   175   156   154    1
   176    99    98    1
   177   139   138    1
   178   139   140    2
   179   179   171   am
   180   158   157    1
   181   174   176   ar
   182   174   173    1
   183   144   143    2
   184   172   171    2
   185   171   170    1
   186   154   153    1
   187   168   167    2
   188   152   151    2
   189   173   170    1
   190   151   150    1
   191   167   166    1
   192   170   169    1
   193   166   165    1
   194   153   150    1
   195   153   155    1
   196   150   149    1
