@<TRIPOS>MOLECULE
tmp/1xqdA01.pdb
 190 173 0 0 0
SMALL
GASTEIGER

@<TRIPOS>ATOM
      1  N         25.6730   36.7900   23.8280 N.3    58  LYS58      -0.1245
      2  CA        24.4300   36.0790   24.1090 C.3    58  LYS58       0.1561
      3  C         23.6250   36.7950   25.1990 C.2    58  LYS58       0.2260
      4  O         22.4450   36.5050   25.3960 O.2    58  LYS58      -0.2867
      5  CB        24.7620   34.6560   24.5780 C.3    58  LYS58       0.0271
      6  CG        23.5680   33.7290   24.8130 C.3    58  LYS58       0.0035
      7  CD        23.1300   33.0470   23.5270 C.3    58  LYS58       0.0206
      8  CE        22.0780   31.9670   23.7900 C.3    58  LYS58       0.1093
      9  NZ        20.8260   32.5300   24.3770 N.3    58  LYS58      -0.1314
     10  N         21.1740   38.6350   27.1080 N.3    60  ARG60      -0.1245
     11  CA        19.8510   39.1010   26.7130 C.3    60  ARG60       0.1563
     12  C         19.5040   40.5530   27.0120 C.2    60  ARG60       0.2260
     13  O         18.7450   41.1750   26.2610 O.2    60  ARG60      -0.2867
     14  CB        18.7810   38.1850   27.3130 C.3    60  ARG60       0.0307
     15  CG        17.4000   38.4340   26.7530 C.3    60  ARG60       0.0489
     16  CD        16.4260   37.3580   27.1960 C.3    60  ARG60       0.2205
     17  NE        15.1380   37.5310   26.5370 N.pl3  60  ARG60      -0.0865
     18  CZ        14.1360   36.6630   26.6140 C.cat  60  ARG60       0.5346
     19  NH1       12.9990   36.9030   25.9730 N.pl3  60  ARG60       0.1354
     20  NH2       14.2730   35.5570   27.3310 N.pl3  60  ARG60       0.1354
     21  N         14.6460   41.6120   20.9650 N.3    67  GLU67      -0.1245
     22  CA        13.4440   40.9630   21.4850 C.3    67  GLU67       0.1567
     23  C         12.4210   41.0130   20.3510 C.2    67  GLU67       0.2260
     24  O         12.3390   42.0090   19.6260 O.2    67  GLU67      -0.2867
     25  CB        12.9130   41.6970   22.7150 C.3    67  GLU67       0.0388
     26  CG        13.8380   41.6040   23.9230 C.3    67  GLU67       0.1160
     27  CD        13.9370   40.1990   24.4990 C.2    67  GLU67       0.3649
     28  OE1       14.8070   39.9850   25.3710 O.co2  67  GLU67      -0.2457
     29  OE2       13.1480   39.3120   24.0930 O.co2  67  GLU67      -0.2457
     30  N          8.9960   40.4510   20.7830 N.3    69  GLY69      -0.1225
     31  CA         7.6780   40.8640   21.2280 C.3    69  GLY69       0.1811
     32  C          7.7940   41.6450   22.5170 C.2    69  GLY69       0.2280
     33  O          8.8420   41.6320   23.1540 O.2    69  GLY69      -0.2866
     34  N          6.5360   40.9800   25.2810 N.3    71  GLY71      -0.1210
     35  CA         6.7480   40.0540   26.3800 C.3    71  GLY71       0.1956
     36  C          8.2100   39.7040   26.6050 C.2    71  GLY71       0.2612
     37  O          8.6250   39.4200   27.7340 O.2    71  GLY71      -0.2717
     38  N          8.9930   39.7230   25.5330 N.am   72  GLY72      -0.1956
     39  CA        10.4040   39.3970   25.6400 C.3    72  GLY72       0.1869
     40  C         11.1200   40.2610   26.6580 C.2    72  GLY72       0.2309
     41  O         11.9250   39.7640   27.4450 O.2    72  GLY72      -0.2863
     42  N         10.0220   41.5720   29.2910 N.3    74  GLN74      -0.1231
     43  CA         9.6950   41.1630   30.6480 C.3    74  GLN74       0.1698
     44  C         10.3830   39.8550   31.0180 C.2    74  GLN74       0.2592
     45  O         10.8650   39.6980   32.1400 O.2    74  GLN74      -0.2718
     46  CB         8.1760   41.0320   30.8120 C.3    74  GLN74       0.0381
     47  CG         7.4430   42.3520   30.6450 C.3    74  GLN74       0.0905
     48  CD         8.0870   43.4660   31.4530 C.2    74  GLN74       0.2608
     49  OE1        8.2970   43.3290   32.6590 O.2    74  GLN74      -0.2717
     50  NE2        8.4090   44.5750   30.7910 N.am   74  GLN74      -0.0878
     51  N         10.4330   38.9170   30.0770 N.am   75  ALA75      -0.1980
     52  CA        11.0740   37.6310   30.3380 C.3    75  ALA75       0.1597
     53  C         12.5490   37.8550   30.6490 C.2    75  ALA75       0.2287
     54  O         13.1270   37.1950   31.5180 O.2    75  ALA75      -0.2864
     55  CB        10.9340   36.7160   29.1240 C.3    75  ALA75       0.0319
     56  N         22.3710   30.2800   29.7250 N.3    83  VAL83      -0.1231
     57  CA        21.8060   30.5120   28.4030 C.3    83  VAL83       0.1692
     58  C         21.8960   32.0040   28.0350 C.2    83  VAL83       0.2592
     59  O         21.6730   32.3860   26.8890 O.2    83  VAL83      -0.2718
     60  CB        20.3260   30.0600   28.3560 C.3    83  VAL83       0.0266
     61  CG1       19.4800   30.9860   29.2160 C.3    83  VAL83       0.0020
     62  CG2       19.8280   30.0420   26.9230 C.3    83  VAL83       0.0020
     63  N         22.2170   32.8390   29.0190 N.am   84  ASP84      -0.1974
     64  CA        22.3430   34.2860   28.8030 C.3    84  ASP84       0.1709
     65  C         23.7850   34.7480   29.0160 C.2    84  ASP84       0.2293
     66  O         24.0320   35.9420   29.1870 O.2    84  ASP84      -0.2864
     67  CB        21.4680   35.0660   29.7910 C.3    84  ASP84       0.1436
     68  CG        20.0380   34.5700   29.8410 C.2    84  ASP84       0.3671
     69  OD1       19.3870   34.5120   28.7810 O.co2  84  ASP84      -0.2456
     70  OD2       19.5660   34.2490   30.9560 O.co2  84  ASP84      -0.2456
     71  N          3.4010   27.2520   32.0620 N.3   167  ASN167     -0.1240
     72  CA         4.3700   27.6740   31.0570 C.3   167  ASN167      0.1653
     73  C          3.6560   28.1020   29.7800 C.2   167  ASN167      0.2266
     74  O          4.1200   28.9890   29.0640 O.2   167  ASN167     -0.2867
     75  CB         5.3630   26.5590   30.7220 C.3   167  ASN167      0.1155
     76  CG         6.5360   27.0700   29.8980 C.2   167  ASN167      0.2627
     77  OD1        6.9200   26.4720   28.8890 O.2   167  ASN167     -0.2716
     78  ND2        7.1100   28.1880   30.3270 N.am  167  ASN167     -0.0877
     79  N          2.5320   31.5780   30.2670 N.3   170  ARG170     -0.1231
     80  CA         3.6980   32.4490   30.2610 C.3   170  ARG170      0.1694
     81  C          4.2090   32.7740   28.8670 C.2   170  ARG170      0.2593
     82  O          4.5660   33.9170   28.5820 O.2   170  ARG170     -0.2718
     83  CB         4.8290   31.8110   31.0700 C.3   170  ARG170      0.0321
     84  CG         6.0620   32.6880   31.2150 C.3   170  ARG170      0.0489
     85  CD         7.1700   31.9350   31.9570 C.3   170  ARG170      0.2205
     86  NE         7.7470   30.8610   31.1490 N.pl3 170  ARG170     -0.0865
     87  CZ         8.7990   31.0060   30.3470 C.cat 170  ARG170      0.5346
     88  NH1        9.4030   32.1850   30.2390 N.pl3 170  ARG170      0.1354
     89  NH2        9.2490   29.9720   29.6490 N.pl3 170  ARG170      0.1354
     90  N          4.2290   31.7700   27.9970 N.am  171  THR171     -0.1939
     91  CA         4.7390   31.9490   26.6440 C.3   171  THR171      0.2028
     92  C          3.6980   32.2300   25.5550 C.2   171  THR171      0.2642
     93  O          4.0580   32.6140   24.4430 O.2   171  THR171     -0.2714
     94  CB         5.5720   30.7190   26.2300 C.3   171  THR171      0.1808
     95  OG1        4.7420   29.5540   26.2260 O.3   171  THR171     -0.2208
     96  CG2        6.7020   30.4920   27.2220 C.3   171  THR171      0.0379
     97  N          2.4190   32.0490   25.8730 N.am  172  ASN172     -0.1971
     98  CA         1.3390   32.2820   24.9100 C.3   172  ASN172      0.1688
     99  C          1.2660   33.7480   24.4870 C.2   172  ASN172      0.2292
    100  O          1.1550   34.6400   25.3250 O.2   172  ASN172     -0.2864
    101  CB         0.0010   31.8510   25.5190 C.3   172  ASN172      0.1181
    102  CG        -1.1510   31.9130   24.5270 C.2   172  ASN172      0.2629
    103  OD1       -2.2880   31.5730   24.8640 O.2   172  ASN172     -0.2716
    104  ND2       -0.8650   32.3450   23.3050 N.am  172  ASN172     -0.0877
    105  N          0.0810   40.8230   29.5270 N.3   177  ALA177     -0.1245
    106  CA         1.3480   40.9660   30.2330 C.3   177  ALA177      0.1562
    107  C          1.1800   40.4910   31.6700 C.2   177  ALA177      0.2260
    108  O          2.0410   39.7990   32.2150 O.2   177  ALA177     -0.2867
    109  CB         1.8000   42.4210   30.2090 C.3   177  ALA177      0.0290
    110  N          0.8550   36.6150   31.8990 N.3   180  ALA180     -0.1231
    111  CA         2.1500   35.9820   31.6450 C.3   180  ALA180      0.1694
    112  C          3.0940   36.1690   32.8250 C.2   180  ALA180      0.2592
    113  O          3.8490   35.2620   33.1810 O.2   180  ALA180     -0.2718
    114  CB         2.7720   36.5590   30.3850 C.3   180  ALA180      0.0304
    115  N          3.0550   37.3550   33.4200 N.am  181  SER181     -0.1952
    116  CA         3.8930   37.6680   34.5720 C.3   181  SER181      0.1924
    117  C          3.5170   36.7920   35.7700 C.2   181  SER181      0.2314
    118  O          4.3850   36.2690   36.4710 O.2   181  SER181     -0.2863
    119  CB         3.7330   39.1480   34.9420 C.3   181  SER181      0.2116
    120  OG         4.4640   39.4580   36.1140 O.3   181  SER181     -0.2180
    121  N          4.7390   33.2000   35.1520 N.3   184  ASN184     -0.1240
    122  CA         6.1850   33.0560   35.3280 C.3   184  ASN184      0.1653
    123  C          6.5070   32.9490   36.8160 C.2   184  ASN184      0.2266
    124  O          7.3180   32.1140   37.2240 O.2   184  ASN184     -0.2867
    125  CB         6.9270   34.2630   34.7330 C.3   184  ASN184      0.1155
    126  CG         8.4160   33.9920   34.4980 C.2   184  ASN184      0.2627
    127  OD1        9.0520   33.2190   35.2190 O.2   184  ASN184     -0.2716
    128  ND2        8.9780   34.6490   33.4880 N.am  184  ASN184     -0.0877
    129  N         14.4370   26.2290   36.5160 N.3   230  PHE230     -0.1227
    130  CA        13.4050   26.8380   35.6800 C.3   230  PHE230      0.1736
    131  C         13.8000   26.7070   34.2170 C.2   230  PHE230      0.2595
    132  O         12.9930   26.3120   33.3800 O.2   230  PHE230     -0.2718
    133  CB        13.2330   28.3140   36.0580 C.3   230  PHE230      0.0547
    134  CG        12.2890   29.0770   35.1620 C.ar  230  PHE230     -0.0202
    135  CD1       12.7500   29.6900   34.0040 C.ar  230  PHE230     -0.0042
    136  CD2       10.9430   29.1880   35.4870 C.ar  230  PHE230     -0.0042
    137  CE1       11.8810   30.4080   33.1790 C.ar  230  PHE230     -0.0003
    138  CE2       10.0670   29.9040   34.6680 C.ar  230  PHE230     -0.0003
    139  CZ        10.5370   30.5130   33.5170 C.ar  230  PHE230     -0.0000
    140  N         15.0540   27.0280   33.9170 N.am  231  LEU231     -0.1980
    141  CA        15.5470   26.9420   32.5510 C.3   231  LEU231      0.1596
    142  C         15.4240   25.5290   31.9880 C.2   231  LEU231      0.2287
    143  O         14.9600   25.3430   30.8670 O.2   231  LEU231     -0.2864
    144  CB        17.0120   27.3900   32.4860 C.3   231  LEU231      0.0297
    145  CG        17.7360   27.1310   31.1590 C.3   231  LEU231      0.0022
    146  CD1       17.0810   27.9320   30.0350 C.3   231  LEU231      0.0001
    147  CD2       19.2080   27.5220   31.3000 C.3   231  LEU231      0.0001
    148  N         11.5370   24.6130   31.4670 N.3   234  VAL234     -0.1231
    149  CA        10.8200   25.2730   30.3790 C.3   234  VAL234      0.1692
    150  C         11.4640   25.2320   29.0020 C.2   234  VAL234      0.2592
    151  O         10.7610   25.2250   27.9890 O.2   234  VAL234     -0.2718
    152  CB        10.5160   26.7510   30.7220 C.3   234  VAL234      0.0266
    153  CG1        9.8190   26.8330   32.0770 C.3   234  VAL234      0.0020
    154  CG2       11.7950   27.5800   30.7100 C.3   234  VAL234      0.0020
    155  N         12.7900   25.2070   28.9480 N.am  235  ALA235     -0.1966
    156  CA        13.4510   25.1700   27.6550 C.3   235  ALA235      0.1728
    157  C         13.3420   23.7970   27.0020 C.2   235  ALA235      0.2616
    158  O         13.6150   22.7730   27.6270 O.2   235  ALA235     -0.2715
    159  CB        14.9160   25.5640   27.8010 C.3   235  ALA235      0.0334
    160  N         12.9080   23.7910   25.7470 N.am  236  GLY236     -0.1955
    161  CA        12.8120   22.5590   24.9870 C.3   236  GLY236      0.1869
    162  C         11.7310   21.5250   25.2320 C.2   236  GLY236      0.2309
    163  O         11.4880   20.6970   24.3490 O.2   236  GLY236     -0.2863
    164  N          8.9890   22.0200   22.8150 N.3   239  THR239     -0.1218
    165  CA         9.5820   21.7930   21.5030 C.3   239  THR239      0.1862
    166  C          9.6350   20.2910   21.2290 C.2   239  THR239      0.2287
    167  O          9.3500   19.8590   20.1160 O.2   239  THR239     -0.2866
    168  CB        10.9960   22.3970   21.4280 C.3   239  THR239      0.1770
    169  OG1       10.9270   23.7880   21.7780 O.3   239  THR239     -0.2211
    170  CG2       11.5640   22.2720   20.0130 C.3   239  THR239      0.0375
    171  N         12.5450   24.9760   16.7320 N.3   282  SER282     -0.1217
    172  CA        13.1630   26.0790   17.4780 C.3   282  SER282      0.1889
    173  C         13.8980   26.8660   16.4030 C.2   282  SER282      0.2288
    174  O         15.0270   26.5290   16.0400 O.2   282  SER282     -0.2866
    175  CB        14.1740   25.5850   18.5210 C.3   282  SER282      0.2089
    176  OG        14.8600   26.6980   19.0810 O.3   282  SER282     -0.2183
    177  N         15.4250   31.2400   18.3380 N.3   285  ALA285     -0.1245
    178  CA        16.2090   31.3410   19.5590 C.3   285  ALA285      0.1562
    179  C         17.6670   31.7600   19.4000 C.2   285  ALA285      0.2260
    180  O         18.2760   32.2390   20.3580 O.2   285  ALA285     -0.2867
    181  CB        16.1290   30.0220   20.3240 C.3   285  ALA285      0.0290
    182  N         19.7130   34.2190   18.8250 N.3   287  LYS287     -0.1245
    183  CA        19.7990   35.6690   18.7440 C.3   287  LYS287      0.1561
    184  C         21.0160   36.1730   19.5050 C.2   287  LYS287      0.2260
    185  O         21.3550   35.6500   20.5690 O.2   287  LYS287     -0.2867
    186  CB        18.5250   36.2970   19.3130 C.3   287  LYS287      0.0271
    187  CG        17.2450   35.8140   18.6270 C.3   287  LYS287      0.0035
    188  CD        16.0460   36.6980   18.9680 C.3   287  LYS287      0.0206
    189  CE        15.6240   36.5740   20.4220 C.3   287  LYS287      0.1093
    190  NZ        15.0770   35.2150   20.7220 N.3   287  LYS287     -0.1314
@<TRIPOS>BOND
     1   174   173    2
     2   173   172    1
     3   171   172    1
     4   172   175    1
     5   177   178    1
     6   175   176    1
     7   187   188    1
     8   187   186    1
     9   183   182    1
    10   183   186    1
    11   183   184    1
    12   188   189    1
    13   179   178    1
    14   179   180    2
    15   184   185    2
    16   178   181    1
    17    24    23    2
    18   170   168    1
    19   167   166    2
    20    23    22    1
    21   189   190    1
    22    30    31    1
    23    21    22    1
    24    31    32    1
    25   166   165    1
    26   168   165    1
    27   168   169    1
    28    22    25    1
    29   165   164    1
    30    32    33    2
    31    25    26    1
    32   104   102   am
    33     7     8    1
    34     7     6    1
    35     8     9    1
    36     1     2    1
    37    26    27    1
    38    29    27   ar
    39     2     5    1
    40     2     3    1
    41   163   162    2
    42    93    92    2
    43    99    98    1
    44    99   100    2
    45    27    28   ar
    46   102   103    2
    47   102   101    1
    48     5     6    1
    49    98   101    1
    50    98    97    1
    51   161   162    1
    52   161   160    1
    53     3     4    2
    54    34    35    1
    55    38    39    1
    56    38    36   am
    57    92    97   am
    58    92    91    1
    59    39    40    1
    60   160   157   am
    61    19    18    1
    62    95    94    1
    63    94    91    1
    64    94    96    1
    65    13    12    2
    66    35    36    1
    67    17    18    2
    68    17    16    1
    69    36    37    2
    70    18    20    1
    71    91    90    1
    72    40    41    2
    73    11    12    1
    74    11    10    1
    75    11    14    1
    76    15    16    1
    77    15    14    1
    78    59    58    2
    79    62    60    1
    80   157   158    2
    81   157   156    1
    82   156   159    1
    83   156   155    1
    84   151   150    2
    85    90    81   am
    86    58    57    1
    87    58    63   am
    88    60    57    1
    89    60    61    1
    90    57    56    1
    91    82    81    2
    92    69    68   ar
    93    64    65    1
    94    64    63    1
    95    64    67    1
    96    81    80    1
    97    77    76    2
    98   155   150   am
    99   150   149    1
   100    65    66    2
   101    74    73    2
   102    55    52    1
   103    42    43    1
   104   105   106    1
   105    89    87    1
   106    73    72    1
   107    67    68    1
   108    68    70   ar
   109    76    78   am
   110    76    75    1
   111   146   145    1
   112    51    52    1
   113    51    44   am
   114   109   106    1
   115   106   107    1
   116    88    87    1
   117    80    79    1
   118    80    83    1
   119    52    53    1
   120    87    86    2
   121   149   152    1
   122   149   148    1
   123   114   111    1
   124    47    46    1
   125    47    48    1
   126    43    46    1
   127    43    44    1
   128    53    54    2
   129   154   152    1
   130   152   153    1
   131    75    72    1
   132    50    48   am
   133   143   142    2
   134    44    45    2
   135    72    71    1
   136    83    84    1
   137    86    85    1
   138   145   147    1
   139   145   144    1
   140    84    85    1
   141    48    49    2
   142   111   110    1
   143   111   112    1
   144   107   108    2
   145   142   141    1
   146   144   141    1
   147   141   140    1
   148   112   113    2
   149   112   115   am
   150   137   139   ar
   151   137   135   ar
   152   132   131    2
   153   115   116    1
   154   128   126   am
   155   139   138   ar
   156   140   131   am
   157   135   134   ar
   158   131   130    1
   159   126   125    1
   160   126   127    2
   161   116   119    1
   162   116   117    1
   163   138   136   ar
   164   125   122    1
   165   119   120    1
   166   121   122    1
   167   134   136   ar
   168   134   133    1
   169   122   123    1
   170   130   133    1
   171   130   129    1
   172   117   118    2
   173   123   124    2
