@<TRIPOS>MOLECULE
tmp/1xqhC00.pdb
 236 234 0 0 0
SMALL
GASTEIGER

@<TRIPOS>ATOM
      1  N         13.5780   49.0140   17.1700 N.3   129  TYR129     -0.1241
      2  CA        13.4320   50.2830   17.8610 C.3   129  TYR129      0.1605
      3  C         13.8220   50.0400   19.3190 C.2   129  TYR129      0.2264
      4  O         12.9700   49.7990   20.1810 O.2   129  TYR129     -0.2867
      5  CB        12.0070   50.8160   17.7130 C.3   129  TYR129      0.0534
      6  CG        11.8600   52.3170   17.8520 C.ar  129  TYR129     -0.0201
      7  CD1       11.2260   53.0740   16.8710 C.ar  129  TYR129     -0.0009
      8  CD2       12.3400   52.9820   18.9670 C.ar  129  TYR129     -0.0009
      9  CE1       11.0780   54.4420   17.0050 C.ar  129  TYR129      0.0417
     10  CE2       12.1980   54.3250   19.1000 C.ar  129  TYR129      0.0417
     11  CZ        11.5680   55.0590   18.1160 C.ar  129  TYR129      0.1957
     12  OH        11.4270   56.4210   18.2620 O.3   129  TYR129     -0.2866
     13  N          5.9750   56.8690   31.3390 N.3   136  HIS136     -0.1241
     14  CA         5.0860   57.7740   30.6240 C.3   136  HIS136      0.1621
     15  C          5.0350   59.1210   31.3550 C.2   136  HIS136      0.2264
     16  O          4.9440   60.1800   30.7330 O.2   136  HIS136     -0.2867
     17  CB         3.6910   57.1670   30.5140 C.3   136  HIS136      0.0745
     18  CG         3.6030   56.0500   29.5260 C.ar  136  HIS136      0.0817
     19  ND1        3.3200   56.2590   28.1940 N.ar  136  HIS136     -0.2268
     20  CD2        3.7770   54.7150   29.6690 C.ar  136  HIS136      0.1154
     21  CE1        3.3130   55.0970   27.5630 C.ar  136  HIS136      0.1986
     22  NE2        3.5870   54.1450   28.4370 N.ar  136  HIS136     -0.2212
     23  N          7.9450   61.3710   30.3290 N.3   139  VAL139     -0.1231
     24  CA         7.7390   61.8020   28.9550 C.3   139  VAL139      0.1692
     25  C          6.5750   62.7800   28.8270 C.2   139  VAL139      0.2592
     26  O          6.7180   63.8540   28.2530 O.2   139  VAL139     -0.2718
     27  CB         7.4720   60.5790   28.0570 C.3   139  VAL139      0.0266
     28  CG1        7.0990   61.0070   26.6490 C.3   139  VAL139      0.0020
     29  CG2        8.6890   59.6750   28.0470 C.3   139  VAL139      0.0020
     30  N          5.4290   62.4060   29.3830 N.am  140  ASP140     -0.1960
     31  CA         4.2240   63.2020   29.2690 C.3   140  ASP140      0.1840
     32  C          4.3560   64.5610   29.9640 C.2   140  ASP140      0.2623
     33  O          3.6640   65.5140   29.5940 O.2   140  ASP140     -0.2715
     34  CB         3.0360   62.4240   29.8240 C.3   140  ASP140      0.1450
     35  CG         2.6460   61.2400   28.9520 C.2   140  ASP140      0.3671
     36  OD1        3.2030   61.0680   27.8360 O.co2 140  ASP140     -0.2456
     37  OD2        1.7730   60.4180   29.3010 O.co2 140  ASP140     -0.2456
     38  N          5.2570   64.6530   30.9430 N.am  141  SER141     -0.1936
     39  CA         5.4370   65.8780   31.7250 C.3   141  SER141      0.2055
     40  C          6.5560   66.8130   31.2370 C.2   141  SER141      0.2643
     41  O          6.7620   67.8770   31.8260 O.2   141  SER141     -0.2714
     42  CB         5.6940   65.5090   33.1810 C.3   141  SER141      0.2130
     43  OG         7.0710   65.2370   33.3680 O.3   141  SER141     -0.2179
     44  N          7.2710   66.4360   30.1750 N.am  142  ARG142     -0.1963
     45  CA         8.3460   67.2890   29.6380 C.3   142  ARG142      0.1729
     46  C          8.0110   67.8550   28.2420 C.2   142  ARG142      0.2616
     47  O          7.0330   67.4520   27.6050 O.2   142  ARG142     -0.2715
     48  CB         9.6750   66.5400   29.6210 C.3   142  ARG142      0.0348
     49  CG         9.6800   65.3060   28.7320 C.3   142  ARG142      0.0492
     50  CD        10.9540   64.4990   28.8190 C.3   142  ARG142      0.2205
     51  NE        11.0510   63.5360   27.7350 N.pl3 142  ARG142     -0.0865
     52  CZ        11.9870   62.6050   27.6290 C.cat 142  ARG142      0.5346
     53  NH1       12.9370   62.4960   28.5420 N.pl3 142  ARG142      0.1354
     54  NH2       11.9680   61.7810   26.5920 N.pl3 142  ARG142      0.1354
     55  N          8.8380   68.7900   27.7760 N.am  143  ASP143     -0.1957
     56  CA         8.6490   69.4720   26.4890 C.3   143  ASP143      0.1840
     57  C          8.6450   68.5420   25.2700 C.2   143  ASP143      0.2622
     58  O          9.3710   67.5570   25.2310 O.2   143  ASP143     -0.2715
     59  CB         9.7700   70.5100   26.3160 C.3   143  ASP143      0.1450
     60  CG         9.4080   71.6260   25.3480 C.2   143  ASP143      0.3671
     61  OD1        9.1100   71.3620   24.1660 O.co2 143  ASP143     -0.2456
     62  OD2        9.4180   72.8210   25.6860 O.co2 143  ASP143     -0.2456
     63  N          7.8390   68.8740   24.2640 N.am  144  TRP144     -0.1974
     64  CA         7.8130   68.0950   23.0340 C.3   144  TRP144      0.1640
     65  C          9.2120   68.0640   22.4240 C.2   144  TRP144      0.2290
     66  O          9.5780   67.1150   21.7340 O.2   144  TRP144     -0.2864
     67  CB         6.8110   68.6630   22.0410 C.3   144  TRP144      0.0576
     68  CG         5.5200   67.9060   22.0340 C.ar  144  TRP144      0.0006
     69  CD1        4.3060   68.3510   22.4570 C.ar  144  TRP144      0.0946
     70  CD2        5.3170   66.5570   21.5960 C.ar  144  TRP144      0.0152
     71  NE1        3.3570   67.3690   22.3050 N.ar  144  TRP144     -0.2442
     72  CE2        3.9520   66.2560   21.7760 C.ar  144  TRP144      0.0810
     73  CE3        6.1530   65.5740   21.0690 C.ar  144  TRP144      0.0012
     74  CZ2        3.4090   65.0220   21.4510 C.ar  144  TRP144      0.0191
     75  CZ3        5.6110   64.3440   20.7380 C.ar  144  TRP144      0.0001
     76  CH2        4.2510   64.0810   20.9270 C.ar  144  TRP144      0.0015
     77  N         10.8180   65.0000   23.1500 N.3   147  ASN147     -0.1225
     78  CA        10.0280   63.8150   22.7980 C.3   147  ASN147      0.1785
     79  C          9.9590   63.4300   21.3190 C.2   147  ASN147      0.2598
     80  O          8.9800   62.8410   20.8730 O.2   147  ASN147     -0.2718
     81  CB         8.6290   63.9960   23.3600 C.3   147  ASN147      0.1169
     82  CG         8.6150   63.9030   24.8680 C.2   147  ASN147      0.2627
     83  OD1        9.4340   63.1940   25.4540 O.2   147  ASN147     -0.2716
     84  ND2        7.7070   64.6320   25.5110 N.am  147  ASN147     -0.0877
     85  N         11.0040   63.7340   20.5630 N.am  148  GLY148     -0.1942
     86  CA        11.0250   63.3820   19.1540 C.3   148  GLY148      0.2014
     87  C         11.0670   61.8830   18.9020 C.2   148  GLY148      0.2639
     88  O         10.4880   61.4100   17.9230 O.2   148  GLY148     -0.2714
     89  N         11.7490   61.1460   19.7770 N.am  149  ASN149     -0.1958
     90  CA        11.9710   59.7080   19.6010 C.3   149  ASN149      0.1819
     91  C         11.2850   58.7830   20.6200 C.2   149  ASN149      0.2622
     92  O         11.5350   57.5890   20.6430 O.2   149  ASN149     -0.2715
     93  CB        13.4790   59.4290   19.5910 C.3   149  ASN149      0.1195
     94  CG        14.1830   60.0800   18.4120 C.2   149  ASN149      0.2630
     95  OD1       13.5390   60.6150   17.5160 O.2   149  ASN149     -0.2716
     96  ND2       15.5090   60.0460   18.4120 N.am  149  ASN149     -0.0877
     97  N         10.3960   59.3100   21.4400 N.am  150  THR150     -0.1937
     98  CA         9.7030   58.4650   22.4020 C.3   150  THR150      0.2028
     99  C          8.6580   57.6040   21.7210 C.2   150  THR150      0.2642
    100  O          7.8960   58.0820   20.8960 O.2   150  THR150     -0.2714
    101  CB         9.0420   59.3120   23.4850 C.3   150  THR150      0.1808
    102  OG1        8.3000   60.3690   22.8690 O.3   150  THR150     -0.2208
    103  CG2       10.0770   60.0020   24.3210 C.3   150  THR150      0.0379
    104  N          8.6360   56.3270   22.0860 N.am  151  LEU151     -0.1963
    105  CA         7.6960   55.3720   21.5340 C.3   151  LEU151      0.1728
    106  C          7.1510   54.5760   22.7100 C.2   151  LEU151      0.2616
    107  O          7.9290   54.0350   23.4910 O.2   151  LEU151     -0.2715
    108  CB         8.4200   54.4480   20.5590 C.3   151  LEU151      0.0311
    109  CG         7.6940   53.1780   20.1140 C.3   151  LEU151      0.0022
    110  CD1        6.3850   53.4960   19.4360 C.3   151  LEU151      0.0001
    111  CD2        8.6000   52.3640   19.1640 C.3   151  LEU151      0.0001
    112  N          5.8400   54.5390   22.8630 N.am  152  SER152     -0.1950
    113  CA         5.2350   53.7550   23.9440 C.3   152  SER152      0.1924
    114  C          5.4820   52.2600   23.7150 C.2   152  SER152      0.2314
    115  O          5.1910   51.7270   22.6190 O.2   152  SER152     -0.2863
    116  CB         3.7460   54.0150   24.0410 C.3   152  SER152      0.2116
    117  OG         3.5030   55.3780   24.3330 O.3   152  SER152     -0.2180
    118  N          8.1200   53.6680   28.2190 N.3   158  VAL158     -0.1245
    119  CA         8.2990   54.3810   26.9700 C.3   158  VAL158      0.1561
    120  C          9.7450   54.1750   26.5620 C.2   158  VAL158      0.2260
    121  O         10.6460   54.2910   27.3880 O.2   158  VAL158     -0.2867
    122  CB         8.0540   55.8850   27.1170 C.3   158  VAL158      0.0252
    123  CG1        8.4150   56.6030   25.8190 C.3   158  VAL158      0.0019
    124  CG2        6.6120   56.1600   27.5080 C.3   158  VAL158      0.0019
    125  N         15.4610   51.9680   14.2660 N.3   176  GLY176     -0.1210
    126  CA        14.0330   52.2440   14.1640 C.3   176  GLY176      0.1956
    127  C         13.6210   53.6910   14.3770 C.2   176  GLY176      0.2611
    128  O         12.6670   54.1760   13.7800 O.2   176  GLY176     -0.2717
    129  N         14.3430   54.3720   15.2400 N.am  177  HIS177     -0.1975
    130  CA        14.0640   55.7550   15.5680 C.3   177  HIS177      0.1656
    131  C         14.3730   56.7030   14.4030 C.2   177  HIS177      0.2291
    132  O         14.1000   57.9030   14.4900 O.2   177  HIS177     -0.2864
    133  CB        14.8960   56.1370   16.7960 C.3   177  HIS177      0.0771
    134  CG        16.3660   55.9990   16.5690 C.ar  177  HIS177      0.0820
    135  ND1       17.0000   54.7740   16.5240 N.ar  177  HIS177     -0.2267
    136  CD2       17.3160   56.9280   16.3090 C.ar  177  HIS177      0.1154
    137  CE1       18.2820   54.9590   16.2660 C.ar  177  HIS177      0.1986
    138  NE2       18.5020   56.2560   16.1380 N.ar  177  HIS177     -0.2212
    139  N         13.1070   56.2080   11.2380 N.3   179  ALA179     -0.1245
    140  CA        12.0010   56.2060   10.2970 C.3   179  ALA179      0.1562
    141  C         11.1500   57.4290   10.5400 C.2   179  ALA179      0.2260
    142  O         10.7150   57.6710   11.6630 O.2   179  ALA179     -0.2867
    143  CB        11.1610   54.9770   10.4400 C.3   179  ALA179      0.0290
    144  N          4.6600   49.7350   10.0800 N.3   188  ILE188     -0.1231
    145  CA         4.0170   49.9610   11.3660 C.3   188  ILE188      0.1692
    146  C          5.0220   49.5990   12.4590 C.2   188  ILE188      0.2592
    147  O          5.9750   48.8580   12.2010 O.2   188  ILE188     -0.2718
    148  CB         2.7830   49.0620   11.4450 C.3   188  ILE188      0.0266
    149  CG1        1.8460   49.4860   12.5500 C.3   188  ILE188      0.0019
    150  CG2        3.2210   47.5990   11.5750 C.3   188  ILE188      0.0020
    151  CD1        0.4570   48.8840   12.4000 C.3   188  ILE188      0.0001
    152  N          4.8290   50.1320   13.6690 N.am  189  TYR189     -0.1976
    153  CA         5.6290   49.6700   14.8060 C.3   189  TYR189      0.1639
    154  C          4.9320   48.4170   15.3240 C.2   189  TYR189      0.2290
    155  O          3.7110   48.3840   15.3800 O.2   189  TYR189     -0.2864
    156  CB         5.6640   50.6970   15.9360 C.3   189  TYR189      0.0560
    157  CG         6.3470   51.9980   15.5620 C.ar  189  TYR189     -0.0198
    158  CD1        5.7050   53.2090   15.7380 C.ar  189  TYR189     -0.0009
    159  CD2        7.6280   52.0020   15.0500 C.ar  189  TYR189     -0.0009
    160  CE1        6.3260   54.3870   15.4030 C.ar  189  TYR189      0.0417
    161  CE2        8.2650   53.1680   14.7110 C.ar  189  TYR189      0.0417
    162  CZ         7.6050   54.3660   14.8820 C.ar  189  TYR189      0.1957
    163  OH         8.2150   55.5420   14.5350 O.3   189  TYR189     -0.2866
    164  N         10.2850   47.3020   20.3660 N.3   201  LYS201     -0.1245
    165  CA         9.3760   47.3260   19.2240 C.3   201  LYS201      0.1561
    166  C         10.2330   47.1930   17.9600 C.2   201  LYS201      0.2260
    167  O         11.4510   47.3460   18.0010 O.2   201  LYS201     -0.2867
    168  CB         8.4910   48.5660   19.2070 C.3   201  LYS201      0.0271
    169  CG         7.3290   48.4780   20.2300 C.3   201  LYS201      0.0035
    170  CD         6.0170   49.0290   19.7370 C.3   201  LYS201      0.0206
    171  CE         4.9020   48.7940   20.7510 C.3   201  LYS201      0.1093
    172  NZ         3.8870   49.8850   20.7740 N.3   201  LYS201     -0.1314
    173  N          3.2560   55.6470   10.6840 N.3   218  ALA218     -0.1231
    174  CA         2.3710   56.6460   11.2580 C.3   218  ALA218      0.1694
    175  C          2.7280   56.7270   12.7530 C.2   218  ALA218      0.2592
    176  O          2.6380   55.7250   13.4690 O.2   218  ALA218     -0.2718
    177  CB         0.9380   56.2600   11.0480 C.3   218  ALA218      0.0304
    178  N          3.1490   57.8990   13.2300 N.am  219  TYR219     -0.1962
    179  CA         3.5800   58.0540   14.6200 C.3   219  TYR219      0.1771
    180  C          2.4410   57.8350   15.6280 C.2   219  TYR219      0.2620
    181  O          2.6910   57.4560   16.7770 O.2   219  TYR219     -0.2715
    182  CB         4.2540   59.4000   14.8440 C.3   219  TYR219      0.0574
    183  CG         5.6650   59.5010   14.2790 C.ar  219  TYR219     -0.0198
    184  CD1        6.2340   58.4720   13.5360 C.ar  219  TYR219     -0.0009
    185  CD2        6.4160   60.6470   14.4820 C.ar  219  TYR219     -0.0009
    186  CE1        7.5170   58.5810   13.0160 C.ar  219  TYR219      0.0417
    187  CE2        7.6820   60.7730   13.9730 C.ar  219  TYR219      0.0417
    188  CZ         8.2410   59.7380   13.2430 C.ar  219  TYR219      0.1957
    189  OH         9.5220   59.8750   12.7540 O.3   219  TYR219     -0.2866
    190  N          1.2030   58.0570   15.2020 N.am  220  GLY220     -0.1940
    191  CA         0.0550   57.7460   16.0430 C.3   220  GLY220      0.2014
    192  C         -0.2090   58.6990   17.2000 C.2   220  GLY220      0.2639
    193  O         -0.6790   58.2760   18.2480 O.2   220  GLY220     -0.2714
    194  N          0.0750   59.9800   17.0220 N.am  221  TYR221     -0.1959
    195  CA        -0.2170   60.9480   18.0720 C.3   221  TYR221      0.1771
    196  C         -1.7260   61.1700   18.1570 C.2   221  TYR221      0.2619
    197  O         -2.4350   61.0160   17.1660 O.2   221  TYR221     -0.2715
    198  CB         0.5030   62.2620   17.8010 C.3   221  TYR221      0.0574
    199  CG         2.0080   62.1310   17.8090 C.ar  221  TYR221     -0.0198
    200  CD1        2.7800   62.7670   16.8420 C.ar  221  TYR221     -0.0009
    201  CD2        2.6630   61.3640   18.7780 C.ar  221  TYR221     -0.0009
    202  CE1        4.1400   62.6460   16.8320 C.ar  221  TYR221      0.0417
    203  CE2        4.0360   61.2420   18.7760 C.ar  221  TYR221      0.0417
    204  CZ         4.7710   61.8930   17.7950 C.ar  221  TYR221      0.1957
    205  OH         6.1400   61.8070   17.7540 O.3   221  TYR221     -0.2866
    206  N         -2.2140   61.5350   19.3380 N.am  222  ASP222     -0.1971
    207  CA        -3.6410   61.7840   19.5470 C.3   222  ASP222      0.1709
    208  C         -4.0520   63.0720   18.8470 C.2   222  ASP222      0.2293
    209  O         -3.5590   64.1460   19.1790 O.2   222  ASP222     -0.2864
    210  CB        -3.9520   61.8900   21.0440 C.3   222  ASP222      0.1436
    211  CG        -5.4470   61.8660   21.3340 C.2   222  ASP222      0.3671
    212  OD1       -6.2560   61.9740   20.3810 O.co2 222  ASP222     -0.2456
    213  OD2       -5.9120   61.7510   22.4940 O.co2 222  ASP222     -0.2456
    214  N         -7.1560   65.0200   21.8660 N.3   225  PRO225     -0.2103
    215  CA        -7.0460   64.6290   23.2660 C.3   225  PRO225      0.1492
    216  C         -8.4040   64.7800   23.9490 C.2   225  PRO225      0.2455
    217  O         -9.1750   65.6990   23.6560 O.2   225  PRO225     -0.2730
    218  CB        -6.0010   65.5890   23.8380 C.3   225  PRO225      0.0282
    219  CG        -5.3300   66.2020   22.6930 C.3   225  PRO225      0.0208
    220  CD        -6.1360   65.9930   21.4830 C.3   225  PRO225      0.0893
    221  N         -8.6560   63.8710   24.8810 N.am  226  PRO226     -0.2506
    222  CA        -9.9590   63.6620   25.5240 C.3   226  PRO226      0.1487
    223  C        -10.5490   64.8390   26.2620 C.2   226  PRO226      0.2276
    224  O        -11.7080   64.7820   26.6820 O.2   226  PRO226     -0.2865
    225  CB        -9.6720   62.5560   26.5560 C.3   226  PRO226      0.0556
    226  CG        -8.2730   62.1250   26.3800 C.2   226  PRO226     -0.0078
    227  CD        -7.6150   62.9890   25.4080 C.2   226  PRO226      0.0634
    228  N         -2.2930   66.6230   20.4130 N.3   232  GLU232     -0.1245
    229  CA        -1.1350   66.6880   21.2830 C.3   232  GLU232      0.1567
    230  C          0.0210   66.1700   20.4430 C.2   232  GLU232      0.2260
    231  O          0.3220   64.9760   20.4440 O.2   232  GLU232     -0.2867
    232  CB        -1.3310   65.8370   22.5330 C.3   232  GLU232      0.0388
    233  CG        -1.3310   66.6520   23.8170 C.3   232  GLU232      0.1160
    234  CD        -0.3530   67.8170   23.7870 C.2   232  GLU232      0.3649
    235  OE1        0.8640   67.5830   23.6350 O.co2 232  GLU232     -0.2457
    236  OE2       -0.8050   68.9730   23.9120 O.co2 232  GLU232     -0.2457
@<TRIPOS>BOND
     1   144   145    1
     2   140   143    1
     3   140   141    1
     4   140   139    1
     5   141   142    2
     6   173   174    1
     7   177   174    1
     8   174   175    1
     9   145   148    1
    10   145   146    1
    11   148   150    1
    12   148   149    1
    13   147   146    2
    14   151   149    1
    15   146   152   am
    16   175   178   am
    17   175   176    2
    18   189   188    1
    19   186   188   ar
    20   186   184   ar
    21   178   179    1
    22   188   187   ar
    23   184   183   ar
    24   152   153    1
    25   128   127    2
    26   187   185   ar
    27   126   125    1
    28   126   127    1
    29   183   185   ar
    30   183   182    1
    31   127   129   am
    32   131   132    2
    33   131   130    1
    34   163   162    1
    35   179   182    1
    36   179   180    1
    37   161   162   ar
    38   161   159   ar
    39   153   154    1
    40   153   156    1
    41   162   160   ar
    42   159   157   ar
    43   190   180   am
    44   190   191    1
    45   129   130    1
    46   154   155    2
    47   160   158   ar
    48   157   158   ar
    49   157   156    1
    50   130   133    1
    51   180   181    2
    52   191   192    1
    53   138   137   ar
    54   138   136   ar
    55   137   135   ar
    56   136   134   ar
    57   135   134   ar
    58   134   133    1
    59   202   200   ar
    60   202   204   ar
    61   200   199   ar
    62     7     9   ar
    63     7     6   ar
    64     9    11   ar
    65   194   192   am
    66   194   195    1
    67   197   196    2
    68     1     2    1
    69   192   193    2
    70    95    94    2
    71     5     6    1
    72     5     2    1
    73   205   204    1
    74   204   203   ar
    75   198   199    1
    76   198   195    1
    77   199   201   ar
    78     6     8   ar
    79     2     3    1
    80    88    87    2
    81   166   167    2
    82   166   165    1
    83   195   196    1
    84    11    12    1
    85    11    10   ar
    86   196   206   am
    87    94    96   am
    88    94    93    1
    89   203   201   ar
    90   208   209    2
    91   208   207    1
    92    87    86    1
    93    87    89   am
    94     8    10   ar
    95    86    85    1
    96   111   109    1
    97   168   165    1
    98   168   169    1
    99   165   164    1
   100     3     4    2
   101   206   207    1
   102   110   109    1
   103   207   210    1
   104    93    90    1
   105    90    89    1
   106    90    91    1
   107   170   169    1
   108   170   171    1
   109   109   108    1
   110   212   211   ar
   111   228   229    1
   112   230   231    2
   113   230   229    1
   114   108   105    1
   115    85    79   am
   116    91    92    2
   117    91    97   am
   118    75    76   ar
   119    75    73   ar
   120   171   172    1
   121    80    79    2
   122   100    99    2
   123    76    74   ar
   124   210   211    1
   125    73    70   ar
   126   229   232    1
   127    79    78    1
   128   211   213   ar
   129    97    98    1
   130    74    72   ar
   131   220   214    1
   132   220   219    1
   133   105   104    1
   134   105   106    1
   135    70    72   ar
   136    70    68   ar
   137    99   104   am
   138    99    98    1
   139    66    65    2
   140    72    71   ar
   141   214   215    1
   142    68    67    1
   143    68    69   ar
   144    67    64    1
   145    71    69   ar
   146    98   101    1
   147    65    64    1
   148   232   233    1
   149   115   114    2
   150   219   218    1
   151   106   112   am
   152   106   107    2
   153    78    77    1
   154    78    81    1
   155   112   113    1
   156   102   101    1
   157    64    63    1
   158   215   218    1
   159   215   216    1
   160    81    82    1
   161   101   103    1
   162   235   234   ar
   163   217   216    2
   164   114   113    1
   165   234   233    1
   166   234   236   ar
   167   113   116    1
   168   216   221   am
   169   116   117    1
   170    61    60   ar
   171    63    57   am
   172    82    83    2
   173    82    84   am
   174   221   227    1
   175   221   222    1
   176    58    57    2
   177    57    56    1
   178    60    62   ar
   179    60    59    1
   180   227   226    2
   181   222   223    1
   182   222   225    1
   183   123   122    1
   184   223   224    2
   185    59    56    1
   186   226   225    1
   187    56    55    1
   188   120   119    1
   189   120   121    2
   190    54    52    1
   191    28    27    1
   192   119   122    1
   193   119   118    1
   194   122   124    1
   195    21    19   ar
   196    21    22   ar
   197    47    46    2
   198    52    51    2
   199    52    53    1
   200    51    50    1
   201    55    46   am
   202    36    35   ar
   203    29    27    1
   204    27    24    1
   205    19    18   ar
   206    46    45    1
   207    26    25    2
   208    22    20   ar
   209    49    50    1
   210    49    48    1
   211    25    24    1
   212    25    30   am
   213    35    37   ar
   214    35    34    1
   215    24    23    1
   216    31    30    1
   217    31    34    1
   218    31    32    1
   219    18    20   ar
   220    18    17    1
   221    33    32    2
   222    48    45    1
   223    45    44    1
   224    32    38   am
   225    44    40   am
   226    17    14    1
   227    14    13    1
   228    14    15    1
   229    16    15    2
   230    38    39    1
   231    40    39    1
   232    40    41    2
   233    39    42    1
   234    42    43    1
