@<TRIPOS>MOLECULE
tmp/1xqiB00.pdb
 105 100 0 0 0
SMALL
GASTEIGER

@<TRIPOS>ATOM
      1  N         34.4620   62.4230   47.5320 N.3    10  LYS10      -0.1245
      2  CA        35.7560   63.0450   47.6540 C.3    10  LYS10       0.1561
      3  C         36.6740   62.6690   46.4940 C.2    10  LYS10       0.2260
      4  O         36.3740   61.7410   45.7090 O.2    10  LYS10      -0.2867
      5  CB        36.3630   62.6240   48.9750 C.3    10  LYS10       0.0271
      6  CG        35.4210   62.8870   50.1220 C.3    10  LYS10       0.0035
      7  CD        36.0980   62.5790   51.4530 C.3    10  LYS10       0.0206
      8  CE        35.2650   63.1320   52.5900 C.3    10  LYS10       0.1093
      9  NZ        35.7830   62.7140   53.9210 N.3    10  LYS10      -0.1314
     10  N         33.0700   73.2560   55.9090 N.3    49  TYR49      -0.1241
     11  CA        33.1790   72.5210   57.1670 C.3    49  TYR49       0.1605
     12  C         32.9690   73.4790   58.3190 C.2    49  TYR49       0.2264
     13  O         33.3570   74.6040   58.2230 O.2    49  TYR49      -0.2867
     14  CB        34.5090   71.7920   57.2630 C.3    49  TYR49       0.0534
     15  CG        34.4690   70.4850   56.5360 C.ar   49  TYR49      -0.0201
     16  CD1       34.9800   70.3510   55.2470 C.ar   49  TYR49      -0.0009
     17  CD2       33.8870   69.3740   57.1250 C.ar   49  TYR49      -0.0009
     18  CE1       34.9000   69.1290   54.5680 C.ar   49  TYR49       0.0417
     19  CE2       33.8070   68.1630   56.4710 C.ar   49  TYR49       0.0417
     20  CZ        34.3210   68.0360   55.1950 C.ar   49  TYR49       0.1957
     21  OH        34.2320   66.7940   54.5700 O.3    49  TYR49      -0.2866
     22  N         33.0050   71.6080   67.3190 N.3    55  TRP55      -0.1241
     23  CA        33.3800   70.7760   66.1900 C.3    55  TRP55       0.1605
     24  C         34.8910   70.5480   66.1180 C.2    55  TRP55       0.2264
     25  O         35.3540   69.4200   65.8970 O.2    55  TRP55      -0.2867
     26  CB        32.8940   71.3870   64.8860 C.3    55  TRP55       0.0550
     27  CG        33.1390   70.4620   63.7220 C.ar   55  TRP55       0.0003
     28  CD1       32.3110   69.4570   63.2860 C.ar   55  TRP55       0.0946
     29  CD2       34.2860   70.4370   62.8550 C.ar   55  TRP55       0.0152
     30  NE1       32.8720   68.8160   62.2090 N.ar   55  TRP55      -0.2442
     31  CE2       34.0790   69.3930   61.9200 C.ar   55  TRP55       0.0810
     32  CE3       35.4660   71.1870   62.7810 C.ar   55  TRP55       0.0012
     33  CZ2       35.0100   69.0800   60.9220 C.ar   55  TRP55       0.0191
     34  CZ3       36.4020   70.8680   61.7920 C.ar   55  TRP55       0.0001
     35  CH2       36.1640   69.8200   60.8770 C.ar   55  TRP55       0.0015
     36  N         41.9670   68.2120   55.7090 N.3    94  LEU94      -0.1245
     37  CA        40.7010   68.1070   55.0250 C.3    94  LEU94       0.1561
     38  C         40.6170   69.0380   53.8160 C.2    94  LEU94       0.2260
     39  O         40.2160   68.6250   52.7440 O.2    94  LEU94      -0.2867
     40  CB        39.6190   68.4600   56.0050 C.3    94  LEU94       0.0270
     41  CG        38.2630   67.8360   55.8230 C.3    94  LEU94       0.0019
     42  CD1       38.4010   66.3970   55.3510 C.3    94  LEU94       0.0001
     43  CD2       37.5490   67.9330   57.1740 C.3    94  LEU94       0.0001
     44  N         33.4540   55.8250   60.0940 N.3   122  THR122     -0.1218
     45  CA        34.5150   56.7130   59.6260 C.3   122  THR122      0.1862
     46  C         35.8260   56.0880   59.1490 C.2   122  THR122      0.2287
     47  O         36.4420   56.6130   58.2310 O.2   122  THR122     -0.2866
     48  CB        34.7790   57.8580   60.6750 C.3   122  THR122      0.1770
     49  OG1       35.4990   58.9180   60.0460 O.3   122  THR122     -0.2211
     50  CG2       35.5920   57.3800   61.8500 C.3   122  THR122      0.0375
     51  N         31.8400   52.3640   52.7490 N.3   133  ARG133     -0.1245
     52  CA        33.2120   52.5070   53.2480 C.3   133  ARG133      0.1563
     53  C         33.8640   51.1350   53.4610 C.2   133  ARG133      0.2260
     54  O         35.0630   50.9460   53.1570 O.2   133  ARG133     -0.2867
     55  CB        33.2790   53.4840   54.4400 C.3   133  ARG133      0.0307
     56  CG        32.8400   54.8870   53.9450 C.3   133  ARG133      0.0489
     57  CD        33.4090   56.1260   54.6360 C.3   133  ARG133      0.2205
     58  NE        32.7020   56.4760   55.8590 N.pl3 133  ARG133     -0.0865
     59  CZ        32.3760   57.7220   56.2520 C.cat 133  ARG133      0.5346
     60  NH1       32.6450   58.7970   55.5160 N.pl3 133  ARG133      0.1354
     61  NH2       31.7490   57.8740   57.4110 N.pl3 133  ARG133      0.1354
     62  N         44.2250   63.2820   56.4230 N.3   150  VAL150     -0.1231
     63  CA        42.9510   62.7220   56.9010 C.3   150  VAL150      0.1692
     64  C         42.7650   61.3240   56.2620 C.2   150  VAL150      0.2591
     65  O         43.5100   60.9030   55.3610 O.2   150  VAL150     -0.2718
     66  CB        41.7080   63.6460   56.5630 C.3   150  VAL150      0.0266
     67  CG1       41.7610   64.9050   57.3230 C.3   150  VAL150      0.0020
     68  CG2       41.6150   63.9610   55.0470 C.3   150  VAL150      0.0020
     69  N         41.7680   60.6030   56.7440 N.am  151  VAL151     -0.1980
     70  CA        41.4220   59.3180   56.1760 C.3   151  VAL151      0.1595
     71  C         40.7010   59.5720   54.8540 C.2   151  VAL151      0.2287
     72  O         39.8850   60.5110   54.7510 O.2   151  VAL151     -0.2864
     73  CB        40.5510   58.5390   57.1290 C.3   151  VAL151      0.0276
     74  CG1       40.3600   57.1220   56.6330 C.3   151  VAL151      0.0022
     75  CG2       41.2120   58.5340   58.4720 C.3   151  VAL151      0.0022
     76  N         38.1410   58.2580   53.3300 N.3   153  ASN153     -0.1240
     77  CA        36.9640   57.4740   53.5930 C.3   153  ASN153      0.1653
     78  C         35.8370   57.7670   52.5880 C.2   153  ASN153      0.2266
     79  O         34.6590   57.5990   52.9020 O.2   153  ASN153     -0.2867
     80  CB        36.5280   57.6700   55.0310 C.3   153  ASN153      0.1155
     81  CG        36.2000   59.1030   55.3460 C.2   153  ASN153      0.2627
     82  OD1       36.2060   59.5090   56.5230 O.2   153  ASN153     -0.2716
     83  ND2       35.8650   59.8770   54.3260 N.am  153  ASN153     -0.0877
     84  N         33.6860   59.6930   51.2560 N.3   155  VAL155     -0.1231
     85  CA        32.5290   60.5880   51.2690 C.3   155  VAL155      0.1692
     86  C         32.3420   61.3920   52.5580 C.2   155  VAL155      0.2592
     87  O         32.9800   61.1360   53.6010 O.2   155  VAL155     -0.2718
     88  CB        31.1970   59.8710   50.8810 C.3   155  VAL155      0.0266
     89  CG1       31.2690   59.2830   49.4580 C.3   155  VAL155      0.0020
     90  CG2       30.7990   58.7990   51.8700 C.3   155  VAL155      0.0020
     91  N         31.4970   62.4070   52.4230 N.am  156  HIS156     -0.1962
     92  CA        30.9410   63.1870   53.5170 C.3   156  HIS156      0.1787
     93  C         29.4220   63.1180   53.3870 C.2   156  HIS156      0.2620
     94  O         28.8730   63.5100   52.3410 O.2   156  HIS156     -0.2715
     95  CB        31.3800   64.6690   53.3890 C.3   156  HIS156      0.0785
     96  CG        30.5070   65.6130   54.1580 C.ar  156  HIS156      0.0821
     97  ND1       30.7510   65.9540   55.4740 N.ar  156  HIS156     -0.2267
     98  CD2       29.3540   66.2370   53.8190 C.ar  156  HIS156      0.1154
     99  CE1       29.8030   66.7580   55.9060 C.ar  156  HIS156      0.1986
    100  NE2       28.9340   66.9370   54.9250 N.ar  156  HIS156     -0.2212
    101  N         28.7400   62.6390   54.4140 N.am  157  ALA157     -0.1977
    102  CA        27.2580   62.7120   54.5030 C.3   157  ALA157      0.1597
    103  C         26.8610   63.6390   55.6590 C.2   157  ALA157      0.2287
    104  O         27.4080   63.5140   56.7690 O.2   157  ALA157     -0.2864
    105  CB        26.6620   61.3380   54.7390 C.3   157  ALA157      0.0319
@<TRIPOS>BOND
     1     4     3    2
     2     3     2    1
     3     1     2    1
     4     2     5    1
     5     5     6    1
     6    89    88    1
     7     6     7    1
     8    88    85    1
     9    88    90    1
    10    84    85    1
    11    85    86    1
    12     7     8    1
    13    94    93    2
    14    91    86   am
    15    91    92    1
    16    86    87    2
    17    78    79    2
    18    78    77    1
    19     8     9    1
    20    39    38    2
    21    51    52    1
    22    54    53    2
    23    52    53    1
    24    52    55    1
    25    76    77    1
    26    93    92    1
    27    93   101   am
    28    95    92    1
    29    95    96    1
    30    77    80    1
    31    38    37    1
    32    98    96   ar
    33    98   100   ar
    34    56    55    1
    35    56    57    1
    36    96    97   ar
    37    83    81   am
    38   101   102    1
    39   102   105    1
    40   102   103    1
    41    18    20   ar
    42    18    16   ar
    43    21    20    1
    44    57    58    1
    45    72    71    2
    46    71    70    1
    47   100    99   ar
    48    37    36    1
    49    37    40    1
    50    80    81    1
    51    68    66    1
    52    20    19   ar
    53    16    15   ar
    54    81    82    2
    55    42    41    1
    56    65    64    2
    57    97    99   ar
    58    60    59    1
    59   103   104    2
    60    41    40    1
    61    41    43    1
    62    58    59    2
    63    10    11    1
    64    70    69    1
    65    70    73    1
    66    59    61    1
    67    64    69   am
    68    64    63    1
    69    62    63    1
    70    19    17   ar
    71    15    17   ar
    72    15    14    1
    73    66    63    1
    74    66    67    1
    75    74    73    1
    76    73    75    1
    77    11    14    1
    78    11    12    1
    79    13    12    2
    80    47    46    2
    81    46    45    1
    82    45    44    1
    83    45    48    1
    84    49    48    1
    85    48    50    1
    86    35    33   ar
    87    35    34   ar
    88    33    31   ar
    89    34    32   ar
    90    31    30   ar
    91    31    29   ar
    92    30    28   ar
    93    32    29   ar
    94    29    27   ar
    95    28    27   ar
    96    27    26    1
    97    26    23    1
    98    25    24    2
    99    24    23    1
   100    23    22    1
