@<TRIPOS>MOLECULE
tmp/1xqiB01.pdb
 110 108 0 0 0
SMALL
GASTEIGER

@<TRIPOS>ATOM
      1  N         33.0700   73.2560   55.9090 N.3    49  TYR49      -0.1228
      2  CA        33.1790   72.5210   57.1670 C.3    49  TYR49       0.1721
      3  C         32.9690   73.4790   58.3190 C.2    49  TYR49       0.2437
      4  O         33.3570   74.6040   58.2230 O.2    49  TYR49      -0.2733
      5  CB        34.5090   71.7920   57.2630 C.3    49  TYR49       0.0547
      6  CG        34.4690   70.4850   56.5360 C.ar   49  TYR49      -0.0200
      7  CD1       34.9800   70.3510   55.2470 C.ar   49  TYR49      -0.0009
      8  CD2       33.8870   69.3740   57.1250 C.ar   49  TYR49      -0.0009
      9  CE1       34.9000   69.1290   54.5680 C.ar   49  TYR49       0.0417
     10  CE2       33.8070   68.1630   56.4710 C.ar   49  TYR49       0.0417
     11  CZ        34.3210   68.0360   55.1950 C.ar   49  TYR49       0.1957
     12  OH        34.2320   66.7940   54.5700 O.3    49  TYR49      -0.2866
     13  N         32.3420   73.0460   59.4130 N.am   50  PRO50      -0.2729
     14  CA        32.0600   74.0350   60.4920 C.3    50  PRO50       0.1401
     15  C         33.3020   74.7300   61.0510 C.2    50  PRO50       0.2269
     16  O         34.4390   74.2710   60.8580 O.2    50  PRO50      -0.2865
     17  CB        31.4470   73.1790   61.6210 C.3    50  PRO50       0.0296
     18  CG        30.9690   71.9190   60.9480 C.3    50  PRO50       0.0237
     19  CD        31.9150   71.6780   59.7640 C.3    50  PRO50       0.0939
     20  N         33.0050   71.6080   67.3190 N.3    55  TRP55      -0.1241
     21  CA        33.3800   70.7760   66.1900 C.3    55  TRP55       0.1605
     22  C         34.8910   70.5480   66.1180 C.2    55  TRP55       0.2264
     23  O         35.3540   69.4200   65.8970 O.2    55  TRP55      -0.2867
     24  CB        32.8940   71.3870   64.8860 C.3    55  TRP55       0.0550
     25  CG        33.1390   70.4620   63.7220 C.ar   55  TRP55       0.0003
     26  CD1       32.3110   69.4570   63.2860 C.ar   55  TRP55       0.0946
     27  CD2       34.2860   70.4370   62.8550 C.ar   55  TRP55       0.0152
     28  NE1       32.8720   68.8160   62.2090 N.ar   55  TRP55      -0.2442
     29  CE2       34.0790   69.3930   61.9200 C.ar   55  TRP55       0.0810
     30  CE3       35.4660   71.1870   62.7810 C.ar   55  TRP55       0.0012
     31  CZ2       35.0100   69.0800   60.9220 C.ar   55  TRP55       0.0191
     32  CZ3       36.4020   70.8680   61.7920 C.ar   55  TRP55       0.0001
     33  CH2       36.1640   69.8200   60.8770 C.ar   55  TRP55       0.0015
     34  N         41.9670   68.2120   55.7090 N.3    94  LEU94      -0.1245
     35  CA        40.7010   68.1070   55.0250 C.3    94  LEU94       0.1561
     36  C         40.6170   69.0380   53.8160 C.2    94  LEU94       0.2260
     37  O         40.2160   68.6250   52.7440 O.2    94  LEU94      -0.2867
     38  CB        39.6190   68.4600   56.0050 C.3    94  LEU94       0.0270
     39  CG        38.2630   67.8360   55.8230 C.3    94  LEU94       0.0019
     40  CD1       38.4010   66.3970   55.3510 C.3    94  LEU94       0.0001
     41  CD2       37.5490   67.9330   57.1740 C.3    94  LEU94       0.0001
     42  N         23.8060   57.7650   56.1740 N.3   116  ARG116     -0.1245
     43  CA        24.8560   57.5040   57.1420 C.3   116  ARG116      0.1563
     44  C         25.0230   56.0140   57.2720 C.2   116  ARG116      0.2260
     45  O         26.1670   55.5290   57.1510 O.2   116  ARG116     -0.2867
     46  CB        24.6140   58.1930   58.4900 C.3   116  ARG116      0.0307
     47  CG        24.6050   59.6880   58.3220 C.3   116  ARG116      0.0489
     48  CD        24.3230   60.3850   59.6060 C.3   116  ARG116      0.2205
     49  NE        25.5610   60.9650   60.1110 N.pl3 116  ARG116     -0.0865
     50  CZ        26.0940   60.6050   61.2660 C.cat 116  ARG116      0.5346
     51  NH1       25.4720   59.6860   61.9830 N.pl3 116  ARG116      0.1354
     52  NH2       27.2390   61.1440   61.6890 N.pl3 116  ARG116      0.1354
     53  N         31.4970   62.4070   52.4230 N.3   156  HIS156     -0.1226
     54  CA        30.9410   63.1870   53.5170 C.3   156  HIS156      0.1752
     55  C         29.4220   63.1180   53.3870 C.2   156  HIS156      0.2596
     56  O         28.8730   63.5100   52.3410 O.2   156  HIS156     -0.2718
     57  CB        31.3800   64.6690   53.3890 C.3   156  HIS156      0.0759
     58  CG        30.5070   65.6130   54.1580 C.ar  156  HIS156      0.0818
     59  ND1       30.7510   65.9540   55.4740 N.ar  156  HIS156     -0.2268
     60  CD2       29.3540   66.2370   53.8190 C.ar  156  HIS156      0.1154
     61  CE1       29.8030   66.7580   55.9060 C.ar  156  HIS156      0.1986
     62  NE2       28.9340   66.9370   54.9250 N.ar  156  HIS156     -0.2212
     63  N         28.7400   62.6390   54.4140 N.am  157  ALA157     -0.1966
     64  CA        27.2580   62.7120   54.5030 C.3   157  ALA157      0.1728
     65  C         26.8610   63.6390   55.6590 C.2   157  ALA157      0.2617
     66  O         27.4080   63.5140   56.7690 O.2   157  ALA157     -0.2715
     67  CB        26.6620   61.3380   54.7390 C.3   157  ALA157      0.0334
     68  N         25.9150   64.5510   55.4230 N.am  158  SER158     -0.1936
     69  CA        25.4530   65.4280   56.5180 C.3   158  SER158      0.2055
     70  C         25.1280   64.5840   57.7620 C.2   158  SER158      0.2643
     71  O         24.6150   63.4610   57.6480 O.2   158  SER158     -0.2714
     72  CB        24.2550   66.2930   56.1370 C.3   158  SER158      0.2130
     73  OG        24.2800   66.5900   54.7830 O.3   158  SER158     -0.2179
     74  N         25.4560   65.1060   58.9400 N.am  159  ASP159     -0.1971
     75  CA        25.3420   64.2730   60.1210 C.3   159  ASP159      0.1709
     76  C         24.0340   64.4960   60.8060 C.2   159  ASP159      0.2293
     77  O         23.7380   63.7620   61.7090 O.2   159  ASP159     -0.2864
     78  CB        26.4990   64.4800   61.1200 C.3   159  ASP159      0.1436
     79  CG        26.5280   65.8940   61.7020 C.2   159  ASP159      0.3671
     80  OD1       27.6350   66.2910   62.1360 O.co2 159  ASP159     -0.2456
     81  OD2       25.4780   66.6250   61.7020 O.co2 159  ASP159     -0.2456
     82  N         22.2640   70.1910   59.8530 N.3   163  GLU163     -0.1245
     83  CA        23.4440   70.3270   58.9630 C.3   163  GLU163      0.1567
     84  C         23.0910   70.1890   57.4610 C.2   163  GLU163      0.2260
     85  O         23.6210   70.9210   56.6210 O.2   163  GLU163     -0.2867
     86  CB        24.5880   69.3940   59.3570 C.3   163  GLU163      0.0388
     87  CG        25.2750   69.7700   60.6890 C.3   163  GLU163      0.1160
     88  CD        25.9340   71.1610   60.6360 C.2   163  GLU163      0.3649
     89  OE1       25.3370   72.1150   61.1730 O.co2 163  GLU163     -0.2457
     90  OE2       27.0140   71.3090   60.0160 O.co2 163  GLU163     -0.2457
     91  N         21.7850   73.3150   55.8720 N.3   166  ARG166     -0.1231
     92  CA        22.8880   74.2560   55.6980 C.3   166  ARG166      0.1694
     93  C         23.8370   73.8700   54.5380 C.2   166  ARG166      0.2591
     94  O         24.3090   74.7180   53.7850 O.2   166  ARG166     -0.2718
     95  CB        23.6710   74.3970   57.0330 C.3   166  ARG166      0.0321
     96  CG        24.9460   75.2900   56.9130 C.3   166  ARG166      0.0489
     97  CD        25.7880   75.3680   58.1730 C.3   166  ARG166      0.2205
     98  NE        26.5350   74.1200   58.4080 N.pl3 166  ARG166     -0.0865
     99  CZ        27.6420   73.7990   57.7520 C.cat 166  ARG166      0.5346
    100  NH1       28.1180   74.6300   56.8260 N.pl3 166  ARG166      0.1354
    101  NH2       28.2690   72.6620   58.0210 N.pl3 166  ARG166      0.1354
    102  N         24.1270   72.5770   54.4190 N.am  167  GLU167     -0.1979
    103  CA        25.1510   72.1000   53.5090 C.3   167  GLU167      0.1602
    104  C         24.5860   72.0660   52.0930 C.2   167  GLU167      0.2287
    105  O         25.3000   72.3770   51.1250 O.2   167  GLU167     -0.2864
    106  CB        25.6550   70.7200   53.9480 C.3   167  GLU167      0.0415
    107  CG        26.2940   70.6380   55.3170 C.3   167  GLU167      0.1163
    108  CD        26.9160   69.2830   55.5820 C.2   167  GLU167      0.3649
    109  OE1       27.8440   69.2490   56.4420 O.co2 167  GLU167     -0.2457
    110  OE2       26.5010   68.2490   54.9640 O.co2 167  GLU167     -0.2457
@<TRIPOS>BOND
     1   105   104    2
     2   104   103    1
     3    56    55    2
     4    53    54    1
     5    37    36    2
     6    55    54    1
     7    55    63   am
     8    57    54    1
     9    57    58    1
    10   103   106    1
    11   103   102    1
    12    94    93    2
    13    36    35    1
    14    60    58   ar
    15    60    62   ar
    16   106   107    1
    17    58    59   ar
    18    63    64    1
    19   102    93   am
    20    64    67    1
    21    64    65    1
    22    93    92    1
    23     9    11   ar
    24     9     7   ar
    25    12    11    1
    26    73    72    1
    27    62    61   ar
    28   110   108   ar
    29    35    34    1
    30    35    38    1
    31    11    10   ar
    32     7     6   ar
    33   107   108    1
    34    40    39    1
    35    68    65   am
    36    68    69    1
    37    59    61   ar
    38   108   109   ar
    39    65    66    2
    40    92    91    1
    41    92    95    1
    42    39    38    1
    43    39    41    1
    44     1     2    1
    45    72    69    1
    46    42    43    1
    47    10     8   ar
    48    69    70    1
    49     6     8   ar
    50     6     5    1
    51    85    84    2
    52   100    99    1
    53    96    95    1
    54    96    97    1
    55    43    44    1
    56    43    46    1
    57    45    44    2
    58     2     5    1
    59     2     3    1
    60    84    83    1
    61    71    70    2
    62    99   101    1
    63    99    98    2
    64    70    74   am
    65    97    98    1
    66     4     3    2
    67     3    13   am
    68    47    46    1
    69    47    48    1
    70    74    75    1
    71    83    86    1
    72    83    82    1
    73    86    87    1
    74    13    19    1
    75    13    14    1
    76    48    49    1
    77    19    18    1
    78    90    88   ar
    79    49    50    2
    80    75    76    1
    81    75    78    1
    82    14    15    1
    83    14    17    1
    84    88    87    1
    85    88    89   ar
    86    76    77    2
    87    16    15    2
    88    33    31   ar
    89    33    32   ar
    90    31    29   ar
    91    18    17    1
    92    78    79    1
    93    50    52    1
    94    50    51    1
    95    79    81   ar
    96    79    80   ar
    97    32    30   ar
    98    29    28   ar
    99    29    27   ar
   100    28    26   ar
   101    30    27   ar
   102    27    25   ar
   103    26    25   ar
   104    25    24    1
   105    24    21    1
   106    23    22    2
   107    22    21    1
   108    21    20    1
