@<TRIPOS>MOLECULE
tmp/1xqkA00.pdb
 138 130 0 0 0
SMALL
GASTEIGER

@<TRIPOS>ATOM
      1  N         94.8130   10.2300   41.6990 N.3    36  VAL36      -0.1245
      2  CA        95.0300    9.4630   42.9200 C.3    36  VAL36       0.1561
      3  C         95.6200    8.1030   42.5590 C.2    36  VAL36       0.2260
      4  O         94.9480    7.2570   41.9680 O.2    36  VAL36      -0.2867
      5  CB        93.7020    9.2850   43.6840 C.3    36  VAL36       0.0252
      6  CG1       93.9330    8.5280   44.9760 C.3    36  VAL36       0.0019
      7  CG2       93.0930   10.6600   43.9720 C.3    36  VAL36       0.0019
      8  N         97.3760    5.9570   44.9290 N.3    38  LYS38      -0.1245
      9  CA        97.7670    5.2120   46.1200 C.3    38  LYS38       0.1561
     10  C         97.5120    3.7170   45.8850 C.2    38  LYS38       0.2260
     11  O         96.8330    3.3470   44.9270 O.2    38  LYS38      -0.2867
     12  CB        96.9600    5.7000   47.3230 C.3    38  LYS38       0.0271
     13  CG        95.4600    5.6240   47.1270 C.3    38  LYS38       0.0035
     14  CD        94.7390    6.3470   48.2380 C.3    38  LYS38       0.0206
     15  CE        93.2430    6.1180   48.1420 C.3    38  LYS38       0.1093
     16  NZ        92.5440    6.5540   49.3790 N.3    38  LYS38      -0.1314
     17  N         95.6720    1.7000   42.7630 N.3    42  TYR42      -0.1241
     18  CA        94.5510    0.7860   42.8900 C.3    42  TYR42       0.1605
     19  C         94.8840   -0.5520   42.2260 C.2    42  TYR42       0.2264
     20  O         94.0240   -1.1760   41.6100 O.2    42  TYR42      -0.2867
     21  CB        93.2920    1.3880   42.2460 C.3    42  TYR42       0.0534
     22  CG        92.6800    2.5730   42.9770 C.ar   42  TYR42      -0.0201
     23  CD1       93.4610    3.4280   43.7460 C.ar   42  TYR42      -0.0009
     24  CD2       91.3250    2.8770   42.8340 C.ar   42  TYR42      -0.0009
     25  CE1       92.9140    4.5620   44.3480 C.ar   42  TYR42       0.0417
     26  CE2       90.7680    4.0070   43.4270 C.ar   42  TYR42       0.0417
     27  CZ        91.5700    4.8470   44.1810 C.ar   42  TYR42       0.1957
     28  OH        91.0370    5.9810   44.7550 O.3    42  TYR42      -0.2866
     29  N         97.8780   11.8800   51.2630 N.3    84  LEU84      -0.1245
     30  CA        96.5340   12.0690   51.8000 C.3    84  LEU84       0.1561
     31  C         96.3800   11.6000   53.2440 C.2    84  LEU84       0.2260
     32  O         95.5810   12.1590   53.9980 O.2    84  LEU84      -0.2867
     33  CB        95.5180   11.3310   50.9210 C.3    84  LEU84       0.0270
     34  CG        95.4680   11.7550   49.4490 C.3    84  LEU84       0.0019
     35  CD1       94.6090   10.7820   48.6640 C.3    84  LEU84       0.0001
     36  CD2       94.9220   13.1690   49.3400 C.3    84  LEU84       0.0001
     37  N         82.8330   12.8680   57.2220 N.3   132  MET132     -0.1245
     38  CA        83.3470   11.5470   56.8780 C.3   132  MET132      0.1570
     39  C         83.8500   10.8430   58.1410 C.2   132  MET132      0.2261
     40  O         83.8390    9.6160   58.2250 O.2   132  MET132     -0.2867
     41  CB        84.4830   11.6850   55.8600 C.3   132  MET132      0.0387
     42  CG        85.2280   10.4000   55.5350 C.3   132  MET132      0.0595
     43  SD        84.3570    9.2700   54.4330 S.3   132  MET132     -0.1393
     44  CE        85.6830    8.1120   54.0610 C.3   132  MET132      0.0692
     45  N         86.9000   10.5360   59.3090 N.3   134  ARG134     -0.1245
     46  CA        88.1630    9.8220   59.1860 C.3   134  ARG134      0.1563
     47  C         89.3010   10.6790   59.7520 C.2   134  ARG134      0.2260
     48  O         89.7660   10.4540   60.8780 O.2   134  ARG134     -0.2867
     49  CB        88.3960    9.4810   57.7120 C.3   134  ARG134      0.0307
     50  CG        89.4800    8.4520   57.4550 C.3   134  ARG134      0.0489
     51  CD        89.4190    7.9430   56.0120 C.3   134  ARG134      0.2205
     52  NE        89.5330    9.0270   55.0390 N.pl3 134  ARG134     -0.0865
     53  CZ        89.4750    8.8610   53.7190 C.cat 134  ARG134      0.5346
     54  NH1       89.3030    7.6470   53.2010 N.pl3 134  ARG134      0.1354
     55  NH2       89.5970    9.9110   52.9140 N.pl3 134  ARG134      0.1354
     56  N         91.3470   20.9460   52.1740 N.3   162  TYR162     -0.1241
     57  CA        90.4030   20.0360   51.5590 C.3   162  TYR162      0.1605
     58  C         89.6060   19.1740   52.5050 C.2   162  TYR162      0.2264
     59  O         89.8610   19.1370   53.7060 O.2   162  TYR162     -0.2867
     60  CB        91.1280   19.1260   50.5610 C.3   162  TYR162      0.0534
     61  CG        91.9140   17.9780   51.1770 C.ar  162  TYR162     -0.0201
     62  CD1       93.1040   18.2060   51.8770 C.ar  162  TYR162     -0.0009
     63  CD2       91.4840   16.6560   51.0230 C.ar  162  TYR162     -0.0009
     64  CE1       93.8490   17.1450   52.4020 C.ar  162  TYR162      0.0417
     65  CE2       92.2170   15.5890   51.5450 C.ar  162  TYR162      0.0417
     66  CZ        93.3980   15.8370   52.2290 C.ar  162  TYR162      0.1957
     67  OH        94.1340   14.7840   52.7180 O.3   162  TYR162     -0.2866
     68  N         86.7810   15.3890   52.2510 N.3   164  HIS164     -0.1241
     69  CA        86.4030   14.2500   51.4250 C.3   164  HIS164      0.1621
     70  C         84.9440   13.8980   51.6970 C.2   164  HIS164      0.2264
     71  O         84.4780   13.9900   52.8330 O.2   164  HIS164     -0.2867
     72  CB        87.3050   13.0480   51.7350 C.3   164  HIS164      0.0745
     73  CG        87.1900   11.9360   50.7370 C.ar  164  HIS164      0.0817
     74  ND1       87.7180   12.0210   49.4690 N.ar  164  HIS164     -0.2268
     75  CD2       86.5650   10.7360   50.8040 C.ar  164  HIS164      0.1154
     76  CE1       87.4220   10.9220   48.7950 C.ar  164  HIS164      0.1986
     77  NE2       86.7220   10.1270   49.5820 N.ar  164  HIS164     -0.2212
     78  N         85.9120   13.9460   44.6010 N.3   201  ASN201     -0.1225
     79  CA        86.5050   12.6580   44.2550 C.3   201  ASN201      0.1785
     80  C         85.9210   12.3360   42.8730 C.2   201  ASN201      0.2598
     81  O         85.3590   13.2270   42.2290 O.2   201  ASN201     -0.2718
     82  CB        86.1300   11.5700   45.2780 C.3   201  ASN201      0.1169
     83  CG        84.6320   11.4740   45.5300 C.2   201  ASN201      0.2627
     84  OD1       83.8250   12.1350   44.8720 O.2   201  ASN201     -0.2716
     85  ND2       84.2550   10.6360   46.4920 N.am  201  ASN201     -0.0877
     86  N         86.0470   11.0940   42.4070 N.am  202  SER202     -0.1938
     87  CA        85.5080   10.7310   41.0940 C.3   202  SER202      0.2055
     88  C         84.0330   11.0900   40.9390 C.2   202  SER202      0.2642
     89  O         83.6470   11.8110   40.0120 O.2   202  SER202     -0.2714
     90  CB        85.6730    9.2280   40.8280 C.3   202  SER202      0.2130
     91  OG        87.0150    8.8890   40.5280 O.3   202  SER202     -0.2179
     92  N         83.2130   10.5790   41.8490 N.am  203  ALA203     -0.1977
     93  CA        81.7700   10.8080   41.8200 C.3   203  ALA203      0.1597
     94  C         81.3720   12.2780   41.8400 C.2   203  ALA203      0.2287
     95  O         80.5440   12.7110   41.0430 O.2   203  ALA203     -0.2864
     96  CB        81.1110   10.0900   42.9890 C.3   203  ALA203      0.0319
     97  N         90.4200   15.3820   42.9570 N.3   217  ARG217     -0.1245
     98  CA        91.2390   14.2070   43.2290 C.3   217  ARG217      0.1563
     99  C         90.5390   13.0230   42.5560 C.2   217  ARG217      0.2260
    100  O         89.6450   12.3970   43.1240 O.2   217  ARG217     -0.2867
    101  CB        91.3490   13.9950   44.7410 C.3   217  ARG217      0.0307
    102  CG        91.8530   15.2270   45.4860 C.3   217  ARG217      0.0489
    103  CD        92.1990   14.9240   46.9350 C.3   217  ARG217      0.2205
    104  NE        91.0450   14.4750   47.7090 N.pl3 217  ARG217     -0.0865
    105  CZ        90.0410   15.2510   48.1060 C.cat 217  ARG217      0.5346
    106  NH1       90.0290   16.5480   47.8120 N.pl3 217  ARG217      0.1354
    107  NH2       89.0410   14.7240   48.8050 N.pl3 217  ARG217      0.1354
    108  N         90.0980    9.4700   41.3950 N.3   219  GLY219     -0.1210
    109  CA        90.5200    8.1300   41.7460 C.3   219  GLY219      0.1956
    110  C         89.9070    7.0220   40.9040 C.2   219  GLY219      0.2611
    111  O         90.3170    6.7800   39.7670 O.2   219  GLY219     -0.2717
    112  N         88.9080    6.3590   41.4720 N.am  220  ILE220     -0.1979
    113  CA        88.2400    5.2310   40.8340 C.3   220  ILE220      0.1595
    114  C         87.8990    5.3400   39.3360 C.2   220  ILE220      0.2287
    115  O         88.1860    4.4130   38.5700 O.2   220  ILE220     -0.2864
    116  CB        86.9700    4.8470   41.6510 C.3   220  ILE220      0.0276
    117  CG1       86.5120    3.4370   41.2800 C.3   220  ILE220      0.0022
    118  CG2       85.8610    5.8820   41.4400 C.3   220  ILE220      0.0022
    119  CD1       87.4760    2.3450   41.7170 C.3   220  ILE220      0.0001
    120  N         82.0860    4.8940   40.2560 N.3   227  PRO227     -0.2116
    121  CA        82.1850    5.1020   41.7010 C.3   227  PRO227      0.1372
    122  C         81.2110    4.1650   42.4210 C.2   227  PRO227      0.2244
    123  O         81.4820    3.6910   43.5240 O.2   227  PRO227     -0.2868
    124  CB        81.8210    6.5750   41.8550 C.3   227  PRO227      0.0268
    125  CG        82.4210    7.1760   40.6070 C.3   227  PRO227      0.0207
    126  CD        82.0260    6.1800   39.5350 C.3   227  PRO227      0.0892
    127  N         86.4160   -1.1250   44.1560 N.3   352  TYR352     -0.1241
    128  CA        87.7160   -0.6320   44.6370 C.3   352  TYR352      0.1605
    129  C         88.6180   -1.7390   45.1720 C.2   352  TYR352      0.2264
    130  O         89.8040   -1.8030   44.8550 O.2   352  TYR352     -0.2867
    131  CB        87.5460    0.3630   45.7920 C.3   352  TYR352      0.0534
    132  CG        86.9270    1.6940   45.4530 C.ar  352  TYR352     -0.0201
    133  CD1       85.5760    1.7980   45.1450 C.ar  352  TYR352     -0.0009
    134  CD2       87.6850    2.8610   45.4920 C.ar  352  TYR352     -0.0009
    135  CE1       84.9850    3.0290   44.8900 C.ar  352  TYR352      0.0417
    136  CE2       87.1010    4.1010   45.2360 C.ar  352  TYR352      0.0417
    137  CZ        85.7500    4.1740   44.9390 C.ar  352  TYR352      0.1957
    138  OH        85.1540    5.3890   44.7120 O.3   352  TYR352     -0.2866
@<TRIPOS>BOND
     1   115   114    2
     2   114   113    1
     3   126   120    1
     4   126   125    1
     5   111   110    2
     6    89    88    2
     7   120   121    1
     8    91    90    1
     9   125   124    1
    10    90    87    1
    11   113   112    1
    12   113   116    1
    13   110   112   am
    14   110   109    1
    15    88    87    1
    16    88    92   am
    17    95    94    2
    18    87    86    1
    19   117   116    1
    20   117   119    1
    21   108   109    1
    22   118   116    1
    23    20    19    2
    24     1     2    1
    25   121   124    1
    26   121   122    1
    27    93    94    1
    28    93    92    1
    29    93    96    1
    30     4     3    2
    31    19    18    1
    32    81    80    2
    33    21    18    1
    34    21    22    1
    35    86    80   am
    36   122   123    2
    37    99   100    2
    38    99    98    1
    39     3     2    1
    40    17    18    1
    41    24    22   ar
    42    24    26   ar
    43    80    79    1
    44     2     5    1
    45    97    98    1
    46    22    23   ar
    47    98   101    1
    48    26    27   ar
    49     5     7    1
    50     5     6    1
    51    23    25   ar
    52   127   128    1
    53    27    25   ar
    54    27    28    1
    55    79    78    1
    56    79    82    1
    57   128   129    1
    58   128   131    1
    59   138   137    1
    60   101   102    1
    61   130   129    2
    62    84    83    2
    63   135   137   ar
    64   135   133   ar
    65    11    10    2
    66     8     9    1
    67   137   136   ar
    68   133   132   ar
    69   136   134   ar
    70    82    83    1
    71   132   134   ar
    72   132   131    1
    73   102   103    1
    74    83    85   am
    75    10     9    1
    76     9    12    1
    77   103   104    1
    78    13    12    1
    79    13    14    1
    80   104   105    2
    81   106   105    1
    82   105   107    1
    83    15    14    1
    84    15    16    1
    85    35    34    1
    86    76    74   ar
    87    76    77   ar
    88    36    34    1
    89    34    33    1
    90    74    73   ar
    91    77    75   ar
    92    60    61    1
    93    60    57    1
    94    73    75   ar
    95    73    72    1
    96    33    30    1
    97    63    61   ar
    98    63    65   ar
    99    61    62   ar
   100    29    30    1
   101    69    70    1
   102    69    72    1
   103    69    68    1
   104    65    66   ar
   105    57    56    1
   106    57    58    1
   107    70    71    2
   108    30    31    1
   109    62    64   ar
   110    66    64   ar
   111    66    67    1
   112    58    59    2
   113    55    53    1
   114    54    53    1
   115    31    32    2
   116    53    52    2
   117    44    43    1
   118    43    42    1
   119    52    51    1
   120    42    41    1
   121    41    38    1
   122    51    50    1
   123    38    37    1
   124    38    39    1
   125    50    49    1
   126    49    46    1
   127    39    40    2
   128    46    45    1
   129    46    47    1
   130    47    48    2
