@<TRIPOS>MOLECULE
tmp/1xqpA00.pdb
 155 151 0 0 0
SMALL
GASTEIGER

@<TRIPOS>ATOM
      1  N         20.8410   22.7220   34.8690 N.3    27  ASP27      -0.1239
      2  CA        19.9870   23.4090   33.8820 C.3    27  ASP27       0.1674
      3  C         20.3540   24.9120   33.8810 C.2    27  ASP27       0.2266
      4  O         20.3220   25.5470   34.9100 O.2    27  ASP27      -0.2867
      5  CB        18.5470   23.1850   34.2870 C.3    27  ASP27       0.1410
      6  CG        17.5300   23.8360   33.3830 C.2    27  ASP27       0.3668
      7  OD1       17.8240   24.6300   32.4520 O.co2  27  ASP27      -0.2456
      8  OD2       16.3480   23.5540   33.5970 O.co2  27  ASP27      -0.2456
      9  N         18.6570   27.3660   33.1040 N.3    29  GLN29      -0.1245
     10  CA        17.4890   28.0300   33.6920 C.3    29  GLN29       0.1566
     11  C         17.5060   28.0820   35.2510 C.2    29  GLN29       0.2260
     12  O         17.0760   29.0760   35.8630 O.2    29  GLN29      -0.2867
     13  CB        16.1820   27.3620   33.1890 C.3    29  GLN29       0.0367
     14  CG        16.0920   27.2880   31.6290 C.3    29  GLN29       0.0905
     15  CD        14.8510   26.5730   31.0960 C.2    29  GLN29       0.2608
     16  OE1       14.2600   27.0240   30.1090 O.2    29  GLN29      -0.2717
     17  NE2       14.5030   25.4360   31.6850 N.am   29  GLN29      -0.0878
     18  N          6.3490   32.5540   29.0830 N.3    56  SER56      -0.1202
     19  CA         7.4510   31.9090   28.3530 C.3    56  SER56       0.2020
     20  C          6.8640   31.0680   27.2120 C.2    56  SER56       0.2619
     21  O          6.8710   29.8410   27.2810 O.2    56  SER56      -0.2717
     22  CB         8.3140   31.0550   29.3090 C.3    56  SER56       0.2103
     23  OG         9.1260   31.8510   30.1750 O.3    56  SER56      -0.2182
     24  N          6.3520   31.7440   26.1900 N.am   57  TYR57      -0.1961
     25  CA         5.6810   31.1280   25.0300 C.3    57  TYR57       0.1771
     26  C          5.8770   31.9880   23.7670 C.2    57  TYR57       0.2619
     27  O          6.1310   33.1840   23.8600 O.2    57  TYR57      -0.2715
     28  CB         4.1790   30.9000   25.3240 C.3    57  TYR57       0.0574
     29  CG         3.3460   32.1750   25.5450 C.ar   57  TYR57      -0.0198
     30  CD1        2.9120   32.9410   24.4670 C.ar   57  TYR57      -0.0009
     31  CD2        2.9530   32.5750   26.8260 C.ar   57  TYR57      -0.0009
     32  CE1        2.1390   34.1100   24.6410 C.ar   57  TYR57       0.0417
     33  CE2        2.1800   33.7570   27.0230 C.ar   57  TYR57       0.0417
     34  CZ         1.7770   34.5100   25.9290 C.ar   57  TYR57       0.1957
     35  OH         1.0240   35.6680   26.1000 O.3    57  TYR57      -0.2866
     36  N          5.7690   31.3730   22.5910 N.am   58  ARG58      -0.1963
     37  CA         5.9860   32.0870   21.3190 C.3    58  ARG58       0.1729
     38  C          7.2400   32.9720   21.3360 C.2    58  ARG58       0.2616
     39  O          7.1980   34.1840   21.0520 O.2    58  ARG58      -0.2715
     40  CB         4.7530   32.9030   20.9640 C.3    58  ARG58       0.0348
     41  CG         3.5080   32.0550   20.8270 C.3    58  ARG58       0.0492
     42  CD         2.2470   32.8720   20.6450 C.3    58  ARG58       0.2205
     43  NE         2.2670   33.6000   19.3750 N.pl3  58  ARG58      -0.0865
     44  CZ         1.6880   34.7870   19.1680 C.cat  58  ARG58       0.5346
     45  NH1        1.0320   35.4150   20.1510 N.pl3  58  ARG58       0.1354
     46  NH2        1.7660   35.3550   17.9630 N.pl3  58  ARG58       0.1354
     47  N          8.3600   32.3360   21.6660 N.am   59  LEU59      -0.1977
     48  CA         9.6370   33.0080   21.7660 C.3    59  LEU59       0.1596
     49  C         10.2810   33.0750   20.3970 C.2    59  LEU59       0.2287
     50  O          9.9610   32.3030   19.4940 O.2    59  LEU59      -0.2864
     51  CB        10.5700   32.2720   22.7470 C.3    59  LEU59       0.0297
     52  CG        10.0270   31.9500   24.1540 C.3    59  LEU59       0.0022
     53  CD1       10.9760   30.9970   24.9090 C.3    59  LEU59       0.0001
     54  CD2        9.7960   33.2230   24.9710 C.3    59  LEU59       0.0001
     55  N         14.2550   28.6130   24.5780 N.3    63  GLY63      -0.1225
     56  CA        13.9090   28.7190   26.0090 C.3    63  GLY63       0.1811
     57  C         15.1060   29.1140   26.8710 C.2    63  GLY63       0.2280
     58  O         15.0420   30.1070   27.6030 O.2    63  GLY63      -0.2866
     59  N         16.3210   32.7910   26.5210 N.3    66  HIS66      -0.1226
     60  CA        15.3030   33.6900   27.0880 C.3    66  HIS66       0.1752
     61  C         15.5090   33.8030   28.6170 C.2    66  HIS66       0.2596
     62  O         15.5810   34.9230   29.1620 O.2    66  HIS66      -0.2718
     63  CB        13.9140   33.1710   26.6750 C.3    66  HIS66       0.0759
     64  CG        12.8010   33.4810   27.6290 C.ar   66  HIS66       0.0818
     65  ND1       12.3600   34.7610   27.8700 N.ar   66  HIS66      -0.2268
     66  CD2       11.9760   32.6610   28.3240 C.ar   66  HIS66       0.1154
     67  CE1       11.3390   34.7220   28.7110 C.ar   66  HIS66       0.1986
     68  NE2       11.0800   33.4590   28.9950 N.ar   66  HIS66      -0.2212
     69  N         15.7170   32.6530   29.2560 N.am   67  TRP67      -0.1976
     70  CA        15.9720   32.5860   30.7140 C.3    67  TRP67       0.1640
     71  C         17.3120   33.2490   31.1100 C.2    67  TRP67       0.2290
     72  O         17.3870   33.9610   32.1160 O.2    67  TRP67      -0.2864
     73  CB        15.8390   31.1500   31.2440 C.3    67  TRP67       0.0576
     74  CG        14.3890   30.7540   31.3790 C.ar   67  TRP67       0.0006
     75  CD1       13.6050   30.1070   30.4300 C.ar   67  TRP67       0.0946
     76  CD2       13.5010   31.1350   32.4290 C.ar   67  TRP67       0.0152
     77  NE1       12.3080   30.0030   30.8780 N.ar   67  TRP67      -0.2442
     78  CE2       12.2200   30.6050   32.1150 C.ar   67  TRP67       0.0810
     79  CE3       13.6770   31.7850   33.6730 C.ar   67  TRP67       0.0012
     80  CZ2       11.1190   30.7640   32.9550 C.ar   67  TRP67       0.0191
     81  CZ3       12.5800   31.9670   34.4820 C.ar   67  TRP67       0.0001
     82  CH2       11.3140   31.4550   34.1270 C.ar   67  TRP67       0.0015
     83  N          0.3060   23.5070   29.7720 N.3   138  LYS138     -0.1231
     84  CA         1.7920   23.4980   29.8160 C.3   138  LYS138      0.1693
     85  C          2.3870   24.6670   30.6200 C.2   138  LYS138      0.2592
     86  O          3.3200   24.4680   31.3690 O.2   138  LYS138     -0.2718
     87  CB         2.4320   23.3950   28.4140 C.3   138  LYS138      0.0285
     88  CG         2.0450   24.4370   27.3610 C.3   138  LYS138      0.0035
     89  CD         2.9100   24.2930   26.1210 C.3   138  LYS138      0.0206
     90  CE         2.3530   24.9970   24.8900 C.3   138  LYS138      0.1093
     91  NZ         1.7570   26.3420   25.0660 N.3   138  LYS138     -0.1314
     92  N          1.8390   25.8690   30.4670 N.am  139  THR139     -0.1953
     93  CA         2.4760   27.0070   31.0960 C.3   139  THR139      0.1897
     94  C          2.2630   26.9570   32.6130 C.2   139  THR139      0.2313
     95  O          3.1520   27.3440   33.3410 O.2   139  THR139     -0.2863
     96  CB         2.0570   28.3810   30.4470 C.3   139  THR139      0.1794
     97  OG1        2.7740   28.5630   29.2010 O.3   139  THR139     -0.2208
     98  CG2        2.4110   29.5890   31.3040 C.3   139  THR139      0.0378
     99  N          4.7210   24.0730   34.0600 N.3   142  PHE142     -0.1241
    100  CA         6.0870   24.6050   33.9410 C.3   142  PHE142      0.1605
    101  C          6.3990   25.6920   35.0360 C.2   142  PHE142      0.2264
    102  O          7.4650   25.6800   35.6730 O.2   142  PHE142     -0.2867
    103  CB         6.3630   25.1190   32.5280 C.3   142  PHE142      0.0534
    104  CG         7.6510   25.8550   32.4150 C.ar  142  PHE142     -0.0203
    105  CD1        8.8480   25.1910   32.6570 C.ar  142  PHE142     -0.0042
    106  CD2        7.6920   27.1990   32.0340 C.ar  142  PHE142     -0.0042
    107  CE1       10.0550   25.8900   32.5600 C.ar  142  PHE142     -0.0003
    108  CE2        8.8920   27.8650   31.9010 C.ar  142  PHE142     -0.0003
    109  CZ        10.0640   27.2450   32.1920 C.ar  142  PHE142     -0.0000
    110  N          7.3250   24.0390   38.2820 N.3   145  LYS145     -0.1245
    111  CA         8.7320   23.6100   38.2020 C.3   145  LYS145      0.1561
    112  C          9.6860   24.7920   38.4750 C.2   145  LYS145      0.2260
    113  O         10.6020   24.6890   39.3280 O.2   145  LYS145     -0.2867
    114  CB         9.0260   22.9870   36.8300 C.3   145  LYS145      0.0271
    115  CG        10.4900   22.7670   36.5670 C.3   145  LYS145      0.0035
    116  CD        10.6510   21.9100   35.3360 C.3   145  LYS145      0.0206
    117  CE        11.9790   22.1540   34.7020 C.3   145  LYS145      0.1093
    118  NZ        12.3810   21.0040   33.8080 N.3   145  LYS145     -0.1314
    119  N          4.9560   19.2950   31.2050 N.3   168  PRO168     -0.2116
    120  CA         4.5200   20.3590   30.2790 C.3   168  PRO168      0.1372
    121  C          4.8210   19.9860   28.8210 C.2   168  PRO168      0.2244
    122  O          6.0300   19.9070   28.4400 O.2   168  PRO168     -0.2868
    123  CB         5.2660   21.6380   30.7590 C.3   168  PRO168      0.0268
    124  CG         6.2090   21.1850   31.8940 C.3   168  PRO168      0.0207
    125  CD         6.2360   19.6470   31.8690 C.3   168  PRO168      0.0892
    126  N          5.1750   21.0750   25.6720 N.3   170  ASP170     -0.1239
    127  CA         5.5770   22.0500   24.6650 C.3   170  ASP170      0.1674
    128  C          6.1020   21.3450   23.3880 C.2   170  ASP170      0.2266
    129  O          6.1630   20.0940   23.3070 O.2   170  ASP170     -0.2867
    130  CB         6.6470   22.9950   25.2210 C.3   170  ASP170      0.1410
    131  CG         8.0410   22.3930   25.1390 C.2   170  ASP170      0.3668
    132  OD1        8.2340   21.2690   25.6590 O.co2 170  ASP170     -0.2456
    133  OD2        8.9780   22.9650   24.5430 O.co2 170  ASP170     -0.2456
    134  N         10.7330   16.0470   32.9080 N.3   216  ASP216     -0.1239
    135  CA        10.8160   17.2050   32.0250 C.3   216  ASP216      0.1674
    136  C         12.2480   17.7360   31.9050 C.2   216  ASP216      0.2266
    137  O         12.6820   18.1340   30.8290 O.2   216  ASP216     -0.2867
    138  CB         9.9270   18.3450   32.4890 C.3   216  ASP216      0.1410
    139  CG         9.9820   19.5190   31.5470 C.2   216  ASP216      0.3668
    140  OD1        9.4470   19.3470   30.4010 O.co2 216  ASP216     -0.2456
    141  OD2       10.5620   20.6190   31.8390 O.co2 216  ASP216     -0.2456
    142  N         14.4460   18.0680   28.4100 N.3   220  TRP220     -0.1241
    143  CA        14.9620   19.3610   27.9880 C.3   220  TRP220      0.1605
    144  C         16.4880   19.3360   27.8110 C.2   220  TRP220      0.2264
    145  O         17.0220   19.8460   26.8220 O.2   220  TRP220     -0.2867
    146  CB        14.4060   20.5350   28.8580 C.3   220  TRP220      0.0550
    147  CG        13.1890   21.1920   28.1640 C.ar  220  TRP220      0.0003
    148  CD1       11.9800   20.5910   27.8530 C.ar  220  TRP220      0.0946
    149  CD2       13.1310   22.5060   27.5710 C.ar  220  TRP220      0.0152
    150  NE1       11.1920   21.4680   27.1390 N.ar  220  TRP220     -0.2442
    151  CE2       11.8520   22.6520   26.9770 C.ar  220  TRP220      0.0810
    152  CE3       14.0270   23.5990   27.5160 C.ar  220  TRP220      0.0012
    153  CZ2       11.4550   23.8320   26.3020 C.ar  220  TRP220      0.0191
    154  CZ3       13.6190   24.7740   26.8770 C.ar  220  TRP220      0.0001
    155  CH2       12.3510   24.8720   26.2680 C.ar  220  TRP220      0.0015
@<TRIPOS>BOND
     1    46    44    1
     2    44    43    2
     3    44    45    1
     4    43    42    1
     5    50    49    2
     6    49    48    1
     7    42    41    1
     8    41    40    1
     9    40    37    1
    10    39    38    2
    11    37    38    1
    12    37    36    1
    13    38    47   am
    14    47    48    1
    15    48    51    1
    16    36    26   am
    17    51    52    1
    18   129   128    2
    19   128   127    1
    20    26    27    2
    21    26    25    1
    22    52    53    1
    23    52    54    1
    24    30    32   ar
    25    30    29   ar
    26   133   131   ar
    27    55    56    1
    28    32    34   ar
    29   127   130    1
    30   127   126    1
    31    90    91    1
    32    90    89    1
    33    25    28    1
    34    25    24    1
    35   131   130    1
    36   131   132   ar
    37    28    29    1
    38    29    31   ar
    39    34    35    1
    40    34    33   ar
    41    56    57    1
    42    89    88    1
    43    24    20   am
    44   155   153   ar
    45   155   154   ar
    46   153   151   ar
    47    59    60    1
    48    63    60    1
    49    63    64    1
    50   145   144    2
    51    31    33   ar
    52    57    58    2
    53   154   152   ar
    54   151   150   ar
    55   151   149   ar
    56    60    61    1
    57   150   148   ar
    58    20    21    2
    59    20    19    1
    60    88    87    1
    61   152   149   ar
    62   149   147   ar
    63    64    65   ar
    64    64    66   ar
    65   144   143    1
    66   148   147   ar
    67    65    67   ar
    68   143   142    1
    69   143   146    1
    70   147   146    1
    71    66    68   ar
    72    19    18    1
    73    19    22    1
    74    87    84    1
    75   122   121    2
    76    61    62    2
    77    61    69   am
    78    67    68   ar
    79   121   120    1
    80    97    96    1
    81    69    70    1
    82    22    23    1
    83    83    84    1
    84    84    85    1
    85    16    15    2
    86   120   123    1
    87   120   119    1
    88   140   139   ar
    89    75    77   ar
    90    75    74   ar
    91    96    93    1
    92    96    98    1
    93    92    85   am
    94    92    93    1
    95    85    86    2
    96    70    71    1
    97    70    73    1
    98   123   124    1
    99   137   136    2
   100    77    78   ar
   101    93    94    1
   102    15    14    1
   103    15    17   am
   104    71    72    2
   105   119   125    1
   106    73    74    1
   107    74    76   ar
   108   139   141   ar
   109   139   138    1
   110    14    13    1
   111   125   124    1
   112   108   106   ar
   113   108   109   ar
   114   136   135    1
   115   135   138    1
   116   135   134    1
   117   106   104   ar
   118    78    76   ar
   119    78    80   ar
   120   109   107   ar
   121   104   103    1
   122   104   105   ar
   123    76    79   ar
   124     7     6   ar
   125   103   100    1
   126   107   105   ar
   127    94    95    2
   128    80    82   ar
   129     9    10    1
   130    13    10    1
   131     6     8   ar
   132     6     5    1
   133    79    81   ar
   134    10    11    1
   135   118   117    1
   136     3     2    1
   137     3     4    2
   138     2     5    1
   139     2     1    1
   140   100    99    1
   141   100   101    1
   142    82    81   ar
   143   117   116    1
   144   101   102    2
   145    11    12    2
   146   116   115    1
   147   115   114    1
   148   114   111    1
   149   111   110    1
   150   111   112    1
   151   112   113    2
