@<TRIPOS>MOLECULE
tmp/1xqsC00.pdb
 105 96 0 0 0
SMALL
GASTEIGER

@<TRIPOS>ATOM
      1  N          7.9370    6.9240   39.6380 N.3     8  ASP8       -0.1239
      2  CA         7.2690    7.8940   38.7580 C.3     8  ASP8        0.1674
      3  C          7.7500    9.3320   38.9290 C.2     8  ASP8        0.2266
      4  O          7.3540   10.0190   39.8670 O.2     8  ASP8       -0.2867
      5  CB         5.7430    7.8350   38.9590 C.3     8  ASP8        0.1410
      6  CG         4.9840    8.8400   38.0880 C.2     8  ASP8        0.3668
      7  OD1        5.5680    9.3880   37.1270 O.co2   8  ASP8       -0.2456
      8  OD2        3.7840    9.0750   38.3610 O.co2   8  ASP8       -0.2456
      9  N          7.5790   12.8330   37.2840 N.3    10  GLY10      -0.1210
     10  CA         6.8670   13.6240   36.3000 C.3    10  GLY10       0.1956
     11  C          7.3770   15.0500   36.2260 C.2    10  GLY10       0.2612
     12  O          8.5230   15.3320   36.6090 O.2    10  GLY10      -0.2717
     13  N          6.5260   15.9540   35.7450 N.am   11  GLY11      -0.1956
     14  CA         6.9290   17.3390   35.6040 C.3    11  GLY11       0.1869
     15  C          6.7680   18.1660   36.8560 C.2    11  GLY11       0.2309
     16  O          7.3460   19.2450   36.9770 O.2    11  GLY11      -0.2863
     17  N         10.3340   17.4730   37.0880 N.3    39  GLY39      -0.1210
     18  CA        11.0900   18.0120   35.9750 C.3    39  GLY39       0.1956
     19  C         11.1800   19.5180   36.0550 C.2    39  GLY39       0.2611
     20  O         12.2230   20.1060   35.7870 O.2    39  GLY39      -0.2717
     21  N         10.0710   20.1420   36.4280 N.am   40  GLU40      -0.1979
     22  CA        10.0110   21.5880   36.5580 C.3    40  GLU40       0.1602
     23  C         11.2030   22.0540   37.3890 C.2    40  GLU40       0.2287
     24  O         11.8560   23.0350   37.0560 O.2    40  GLU40      -0.2864
     25  CB         8.6960   21.9930   37.2330 C.3    40  GLU40       0.0415
     26  CG         8.3730   23.4810   37.1460 C.3    40  GLU40       0.1163
     27  CD         8.2010   23.9580   35.7070 C.2    40  GLU40       0.3649
     28  OE1        7.2660   23.4730   35.0310 O.co2  40  GLU40      -0.2457
     29  OE2        9.0020   24.8090   35.2500 O.co2  40  GLU40      -0.2457
     30  N         14.5050   21.9930   35.4240 N.3    43  ASP43      -0.1239
     31  CA        14.5000   23.0890   34.4750 C.3    43  ASP43       0.1674
     32  C         15.0350   24.3470   35.1480 C.2    43  ASP43       0.2266
     33  O         16.0400   24.9090   34.7140 O.2    43  ASP43      -0.2867
     34  CB        13.0840   23.3670   33.9700 C.3    43  ASP43       0.1410
     35  CG        12.5260   22.2430   33.1190 C.2    43  ASP43       0.3668
     36  OD1       11.3810   22.3900   32.6300 O.co2  43  ASP43      -0.2456
     37  OD2       13.2190   21.2190   32.9350 O.co2  43  ASP43      -0.2456
     38  N         13.7960   23.5480   29.0450 N.3    77  GLU77      -0.1245
     39  CA        13.1600   22.2460   29.1290 C.3    77  GLU77       0.1567
     40  C         13.5110   21.4620   27.8780 C.2    77  GLU77       0.2260
     41  O         13.7610   20.2580   27.9420 O.2    77  GLU77      -0.2867
     42  CB        11.6420   22.3730   29.2760 C.3    77  GLU77       0.0388
     43  CG        11.0390   21.1280   29.9130 C.3    77  GLU77       0.1160
     44  CD         9.7740   20.6530   29.2260 C.2    77  GLU77       0.3649
     45  OE1        9.7130   20.7410   27.9790 O.co2  77  GLU77      -0.2457
     46  OE2        8.8480   20.1730   29.9270 O.co2  77  GLU77      -0.2457
     47  N         17.1780   20.2940   28.2620 N.3    80  LYS80      -0.1231
     48  CA        17.2730   19.2370   29.2620 C.3    80  LYS80       0.1693
     49  C         16.9400   17.9040   28.6330 C.2    80  LYS80       0.2591
     50  O         17.5520   16.8900   28.9680 O.2    80  LYS80      -0.2718
     51  CB        16.3070   19.5080   30.4190 C.3    80  LYS80       0.0285
     52  CG        16.2580   18.4110   31.4790 C.3    80  LYS80       0.0035
     53  CD        15.0830   18.5880   32.4370 C.3    80  LYS80       0.0206
     54  CE        13.7360   18.5510   31.6990 C.3    80  LYS80       0.1093
     55  NZ        12.5710   18.5580   32.6260 N.3    80  LYS80      -0.1314
     56  N         15.9660   17.9070   27.7250 N.am   81  ARG81      -0.1980
     57  CA        15.5560   16.6860   27.0510 C.3    81  ARG81       0.1597
     58  C         16.6160   16.2230   26.0520 C.2    81  ARG81       0.2287
     59  O         16.9760   15.0500   26.0070 O.2    81  ARG81      -0.2864
     60  CB        14.2300   16.9130   26.3470 C.3    81  ARG81       0.0334
     61  CG        13.6250   15.6550   25.7640 C.3    81  ARG81       0.0492
     62  CD        12.1540   15.8550   25.3540 C.3    81  ARG81       0.2205
     63  NE        11.3260   16.4850   26.3980 N.pl3  81  ARG81      -0.0865
     64  CZ         9.9890   16.4410   26.4290 C.cat  81  ARG81       0.5346
     65  NH1        9.3180   15.7930   25.4820 N.pl3  81  ARG81       0.1354
     66  NH2        9.3140   17.0570   27.3990 N.pl3  81  ARG81       0.1354
     67  N         19.4290   14.1580   27.0410 N.3    84  SER84      -0.1217
     68  CA        19.1680   12.7990   27.4840 C.3    84  SER84       0.1889
     69  C         19.6940   11.8250   26.4530 C.2    84  SER84       0.2288
     70  O         19.8020   10.6230   26.7030 O.2    84  SER84      -0.2866
     71  CB        17.6780   12.5760   27.6940 C.3    84  SER84       0.2089
     72  OG        17.2610   13.2020   28.8890 O.3    84  SER84      -0.2183
     73  N          7.1230    8.2320   33.7550 N.3   147  GLY147     -0.1210
     74  CA         7.3480    9.6560   33.9250 C.3   147  GLY147      0.1956
     75  C          8.4620   10.1620   33.0300 C.2   147  GLY147      0.2612
     76  O          9.5950    9.6970   33.1150 O.2   147  GLY147     -0.2717
     77  N          8.1360   11.1200   32.1700 N.am  148  GLY148     -0.1942
     78  CA         9.1210   11.6660   31.2580 C.3   148  GLY148      0.2014
     79  C         10.5120   11.8420   31.8340 C.2   148  GLY148      0.2639
     80  O         11.5020   11.4590   31.2100 O.2   148  GLY148     -0.2714
     81  N         10.6000   12.4140   33.0290 N.am  149  SER149     -0.1949
     82  CA        11.9000   12.6440   33.6470 C.3   149  SER149      0.1924
     83  C         12.5820   11.4350   34.2790 C.2   149  SER149      0.2314
     84  O         13.2700   11.5660   35.2840 O.2   149  SER149     -0.2863
     85  CB        11.8060   13.7880   34.6650 C.3   149  SER149      0.2116
     86  OG        11.9480   15.0450   34.0170 O.3   149  SER149     -0.2180
     87  N         14.1230    9.4720   32.0730 N.3   151  ARG151     -0.1231
     88  CA        14.9860    9.2380   30.9330 C.3   151  ARG151      0.1694
     89  C         16.3510    9.8640   31.1940 C.2   151  ARG151      0.2591
     90  O         17.3440    9.4650   30.5870 O.2   151  ARG151     -0.2718
     91  CB        14.3630    9.8390   29.6790 C.3   151  ARG151      0.0321
     92  CG        12.9290    9.4100   29.4460 C.3   151  ARG151      0.0489
     93  CD        12.4620    9.8700   28.0920 C.3   151  ARG151      0.2205
     94  NE        11.0180   10.0230   28.0390 N.pl3 151  ARG151     -0.0865
     95  CZ        10.1610    9.0190   27.9020 C.cat 151  ARG151      0.5346
     96  NH1       10.6040    7.7710   27.7990 N.pl3 151  ARG151      0.1354
     97  NH2        8.8560    9.2710   27.8690 N.pl3 151  ARG151      0.1354
     98  N         16.4010   10.8480   32.0920 N.am  152  ILE152     -0.1980
     99  CA        17.6620   11.4950   32.4370 C.3   152  ILE152      0.1595
    100  C         18.6460   10.4020   32.8600 C.2   152  ILE152      0.2287
    101  O         18.4740    9.7760   33.9080 O.2   152  ILE152     -0.2864
    102  CB        17.4690   12.4740   33.5880 C.3   152  ILE152      0.0276
    103  CG1       16.4450   13.5350   33.1820 C.3   152  ILE152      0.0022
    104  CG2       18.8080   13.0780   33.9740 C.3   152  ILE152      0.0022
    105  CD1       15.9600   14.4240   34.3170 C.3   152  ILE152      0.0001
@<TRIPOS>BOND
     1    62    61    1
     2    62    63    1
     3    65    64    1
     4    61    60    1
     5    59    58    2
     6    58    57    1
     7    60    57    1
     8    63    64    2
     9    64    66    1
    10    69    70    2
    11    69    68    1
    12    67    68    1
    13    57    56    1
    14    68    71    1
    15    71    72    1
    16    56    49   am
    17    96    95    1
    18    97    95    1
    19    40    41    2
    20    40    39    1
    21    95    94    2
    22    45    44   ar
    23    94    93    1
    24    93    92    1
    25    47    48    1
    26    49    50    2
    27    49    48    1
    28    38    39    1
    29    39    42    1
    30    44    43    1
    31    44    46   ar
    32    48    51    1
    33    42    43    1
    34    92    91    1
    35    91    88    1
    36    51    52    1
    37    90    89    2
    38    88    89    1
    39    88    87    1
    40    89    98   am
    41    80    79    2
    42    78    79    1
    43    78    77    1
    44    52    53    1
    45    54    53    1
    46    54    55    1
    47    79    81   am
    48    98    99    1
    49    77    75   am
    50    99   100    1
    51    99   102    1
    52    36    35   ar
    53   100   101    2
    54    37    35   ar
    55    81    82    1
    56    75    76    2
    57    75    74    1
    58    35    34    1
    59   103   102    1
    60   103   105    1
    61   102   104    1
    62    82    83    1
    63    82    85    1
    64    73    74    1
    65    34    31    1
    66    86    85    1
    67    83    84    2
    68    31    32    1
    69    31    30    1
    70    33    32    2
    71    28    27   ar
    72    29    27   ar
    73    14    13    1
    74    14    15    1
    75    27    26    1
    76    13    11   am
    77    20    19    2
    78    18    19    1
    79    18    17    1
    80    19    21   am
    81    11    10    1
    82    11    12    2
    83    10     9    1
    84    21    22    1
    85    22    25    1
    86    22    23    1
    87    15    16    2
    88    24    23    2
    89     7     6   ar
    90    26    25    1
    91     6     8   ar
    92     6     5    1
    93     2     3    1
    94     2     5    1
    95     2     1    1
    96     3     4    2
