@<TRIPOS>MOLECULE
tmp/1xqwA01.pdb
 140 133 0 0 0
SMALL
GASTEIGER

@<TRIPOS>ATOM
      1  N         14.3860    2.6280   12.7330 N.3    33  GLY33      -0.1210
      2  CA        15.3420    3.5580   12.1670 C.3    33  GLY33       0.1956
      3  C         16.0310    4.4870   13.1590 C.2    33  GLY33       0.2612
      4  O         16.2560    4.1430   14.3240 O.2    33  GLY33      -0.2717
      5  N         16.3620    5.6840   12.6870 N.am   34  GLY34      -0.1956
      6  CA        17.0480    6.6410   13.5280 C.3    34  GLY34       0.1869
      7  C         18.3130    7.0660   12.8060 C.2    34  GLY34       0.2309
      8  O         18.2410    7.9130   11.9250 O.2    34  GLY34      -0.2863
      9  N         16.1620    5.7250   17.3960 N.3    37  MET37      -0.1245
     10  CA        14.7270    5.8350   17.6210 C.3    37  MET37       0.1570
     11  C         14.3500    4.7540   18.6230 C.2    37  MET37       0.2261
     12  O         14.9730    4.6250   19.6760 O.2    37  MET37      -0.2867
     13  CB        14.0000    5.5800   16.3130 C.3    37  MET37       0.0387
     14  CG        14.1560    6.6790   15.3340 C.3    37  MET37       0.0595
     15  SD        12.9640    7.8420   15.9580 S.3    37  MET37      -0.1393
     16  CE        13.7130    9.4170   15.6900 C.3    37  MET37       0.0692
     17  N          7.4610    3.0330   16.8020 N.3    41  TYR41      -0.1241
     18  CA         6.7750    3.4520   15.5850 C.3    41  TYR41       0.1605
     19  C          6.4930    2.3500   14.5730 C.2    41  TYR41       0.2264
     20  O          5.8420    2.5850   13.5620 O.2    41  TYR41      -0.2867
     21  CB         7.5060    4.6330   14.9170 C.3    41  TYR41       0.0534
     22  CG         8.7070    4.2850   14.0740 C.ar   41  TYR41      -0.0201
     23  CD1        9.9830    4.2050   14.6300 C.ar   41  TYR41      -0.0009
     24  CD2        8.5580    4.0070   12.7190 C.ar   41  TYR41      -0.0009
     25  CE1       11.0810    3.8480   13.8510 C.ar   41  TYR41       0.0417
     26  CE2        9.6350    3.6450   11.9380 C.ar   41  TYR41       0.0417
     27  CZ        10.8920    3.5660   12.5070 C.ar   41  TYR41       0.1957
     28  OH        11.9380    3.1660   11.7250 O.3    41  TYR41      -0.2866
     29  N         13.4500   -0.4350    8.5030 N.3   101  SER101     -0.1202
     30  CA        12.8570    0.8340    8.1290 C.3   101  SER101      0.2020
     31  C         13.8960    1.9470    8.1650 C.2   101  SER101      0.2619
     32  O         14.5060    2.1930    9.2020 O.2   101  SER101     -0.2717
     33  CB        11.7200    1.1820    9.0850 C.3   101  SER101      0.2103
     34  OG        11.2400    2.4820    8.7960 O.3   101  SER101     -0.2182
     35  N         14.0950    2.6120    7.0280 N.am  102  ALA102     -0.1965
     36  CA        15.0530    3.7100    6.9290 C.3   102  ALA102      0.1728
     37  C         16.4330    3.2410    7.3660 C.2   102  ALA102      0.2616
     38  O         17.0120    2.3690    6.7250 O.2   102  ALA102     -0.2715
     39  CB        14.5800    4.8810    7.7820 C.3   102  ALA102      0.0334
     40  N         16.9810    3.8060    8.4400 N.am  103  TYR103     -0.1974
     41  CA        18.2980    3.3460    8.8850 C.3   103  TYR103      0.1639
     42  C         18.2240    1.8510    9.1750 C.2   103  TYR103      0.2290
     43  O         19.1910    1.1170    8.9660 O.2   103  TYR103     -0.2864
     44  CB        18.7500    4.0810   10.1460 C.3   103  TYR103      0.0560
     45  CG        19.8410    3.3410   10.8950 C.ar  103  TYR103     -0.0198
     46  CD1       19.5360    2.5340   11.9960 C.ar  103  TYR103     -0.0009
     47  CD2       21.1710    3.4210   10.4850 C.ar  103  TYR103     -0.0009
     48  CE1       20.5300    1.8290   12.6680 C.ar  103  TYR103      0.0417
     49  CE2       22.1710    2.7170   11.1510 C.ar  103  TYR103      0.0417
     50  CZ        21.8440    1.9260   12.2420 C.ar  103  TYR103      0.1957
     51  OH        22.8300    1.2400   12.9160 O.3   103  TYR103     -0.2866
     52  N          8.6940   17.5310    7.5460 N.3   175  TYR175     -0.1241
     53  CA         8.2510   16.2770    8.1620 C.3   175  TYR175      0.1605
     54  C          6.8220   15.9060    7.7700 C.2   175  TYR175      0.2264
     55  O          6.5300   14.7460    7.4530 O.2   175  TYR175     -0.2867
     56  CB         8.3440   16.3860    9.6910 C.3   175  TYR175      0.0534
     57  CG         9.7410   16.2240   10.2550 C.ar  175  TYR175     -0.0201
     58  CD1       10.8650   16.5050    9.4820 C.ar  175  TYR175     -0.0009
     59  CD2        9.9390   15.8000   11.5710 C.ar  175  TYR175     -0.0009
     60  CE1       12.1550   16.3680   10.0030 C.ar  175  TYR175      0.0417
     61  CE2       11.2280   15.6620   12.1050 C.ar  175  TYR175      0.0417
     62  CZ        12.3300   15.9460   11.3110 C.ar  175  TYR175      0.1957
     63  OH        13.6040   15.8110   11.8200 O.3   175  TYR175     -0.2866
     64  N          7.8360   12.8380    5.9890 N.3   179  LEU179     -0.1245
     65  CA         7.9940   11.8540    7.0590 C.3   179  LEU179      0.1561
     66  C          6.6780   11.1340    7.3530 C.2   179  LEU179      0.2260
     67  O          6.6040    9.9040    7.3120 O.2   179  LEU179     -0.2867
     68  CB         8.5140   12.5290    8.3310 C.3   179  LEU179      0.0270
     69  CG         8.7290   11.6040    9.5350 C.3   179  LEU179      0.0019
     70  CD1        9.7080   10.4940    9.1600 C.3   179  LEU179      0.0001
     71  CD2        9.2530   12.4030   10.7220 C.3   179  LEU179      0.0001
     72  N          4.4580    6.7920   17.0320 N.3   189  VAL189     -0.1245
     73  CA         5.4510    7.5140   16.2460 C.3   189  VAL189      0.1561
     74  C          6.0700    8.6040   17.1130 C.2   189  VAL189      0.2260
     75  O          7.2890    8.7790   17.1480 O.2   189  VAL189     -0.2867
     76  CB         4.8130    8.1560   14.9930 C.3   189  VAL189      0.0252
     77  CG1        5.7940    9.1050   14.3290 C.3   189  VAL189      0.0019
     78  CG2        4.3960    7.0660   14.0110 C.3   189  VAL189      0.0019
     79  N          8.6800    7.2970   19.6290 N.3   192  SER192     -0.1202
     80  CA         9.9880    6.9890   19.0500 C.3   192  SER192      0.2020
     81  C         10.7800    8.2760   18.8250 C.2   192  SER192      0.2618
     82  O         11.9910    8.3140   19.0560 O.2   192  SER192     -0.2717
     83  CB         9.8300    6.2370   17.7210 C.3   192  SER192      0.2103
     84  OG         9.4650    4.8700   17.9280 O.3   192  SER192     -0.2182
     85  N         10.1000    9.3180   18.3530 N.am  193  LEU193     -0.1979
     86  CA        10.7510   10.6000   18.1230 C.3   193  LEU193      0.1596
     87  C         11.2800   11.1190   19.4550 C.2   193  LEU193      0.2287
     88  O         12.4250   11.5500   19.5560 O.2   193  LEU193     -0.2864
     89  CB         9.7590   11.6030   17.5300 C.3   193  LEU193      0.0297
     90  CG         9.3200   11.3840   16.0820 C.3   193  LEU193      0.0022
     91  CD1        8.1690   12.3230   15.7430 C.3   193  LEU193      0.0001
     92  CD2       10.4890   11.6220   15.1590 C.3   193  LEU193      0.0001
     93  N         20.9720    8.9950   18.3870 N.3   202  TYR202     -0.1241
     94  CA        20.5140    9.8300   17.2880 C.3   202  TYR202      0.1605
     95  C         21.4490   11.0220   17.0350 C.2   202  TYR202      0.2264
     96  O         21.7900   11.3340   15.8910 O.2   202  TYR202     -0.2867
     97  CB        19.1040   10.3400   17.5760 C.3   202  TYR202      0.0534
     98  CG        18.4260   10.9120   16.3580 C.ar  202  TYR202     -0.0201
     99  CD1       18.2330   10.1300   15.2200 C.ar  202  TYR202     -0.0009
    100  CD2       17.9750   12.2320   16.3390 C.ar  202  TYR202     -0.0009
    101  CE1       17.6140   10.6460   14.0860 C.ar  202  TYR202      0.0417
    102  CE2       17.3550   12.7620   15.2040 C.ar  202  TYR202      0.0417
    103  CZ        17.1730   11.9610   14.0840 C.ar  202  TYR202      0.1957
    104  OH        16.5480   12.4760   12.9710 O.3   202  TYR202     -0.2866
    105  N         16.3100   14.6610   10.6350 N.3   210  GLU210     -0.1245
    106  CA        16.1710   13.7790    9.4760 C.3   210  GLU210      0.1567
    107  C         16.9680   14.1490    8.2370 C.2   210  GLU210      0.2260
    108  O         17.5090   13.2720    7.5630 O.2   210  GLU210     -0.2867
    109  CB        14.6990   13.6750    9.0910 C.3   210  GLU210      0.0388
    110  CG        13.8530   12.9080   10.0840 C.3   210  GLU210      0.1160
    111  CD        14.2790   11.4590   10.1940 C.2   210  GLU210      0.3649
    112  OE1       15.2430   11.1600   10.9370 O.co2 210  GLU210     -0.2457
    113  OE2       13.6660   10.6030    9.5200 O.co2 210  GLU210     -0.2457
    114  N         11.0730   10.8330    2.4190 N.3   242  GLU242     -0.1245
    115  CA        12.2710   11.6520    2.6170 C.3   242  GLU242      0.1567
    116  C         13.4730   10.8700    2.0670 C.2   242  GLU242      0.2260
    117  O         14.4960   11.4580    1.7180 O.2   242  GLU242     -0.2867
    118  CB        12.4710   11.9710    4.1050 C.3   242  GLU242      0.0388
    119  CG        12.4140   10.7620    5.0060 C.3   242  GLU242      0.1160
    120  CD        12.7590   11.0900    6.4390 C.2   242  GLU242      0.3649
    121  OE1       12.3550   12.1700    6.9210 O.co2 242  GLU242     -0.2457
    122  OE2       13.4260   10.2560    7.0890 O.co2 242  GLU242     -0.2457
    123  N          7.4210    8.5000    4.2050 N.3   268  HIS268     -0.1226
    124  CA         8.3310    7.5820    4.8880 C.3   268  HIS268      0.1752
    125  C          7.6520    6.5520    5.7960 C.2   268  HIS268      0.2595
    126  O          7.9620    5.3610    5.7180 O.2   268  HIS268     -0.2718
    127  CB         9.3490    8.3910    5.6940 C.3   268  HIS268      0.0759
    128  CG        10.6100    7.6460    6.0080 C.ar  268  HIS268      0.0818
    129  ND1       11.0670    6.6010    5.2360 N.ar  268  HIS268     -0.2268
    130  CD2       11.5470    7.8410    6.9650 C.ar  268  HIS268      0.1154
    131  CE1       12.2300    6.1860    5.7020 C.ar  268  HIS268      0.1986
    132  NE2       12.5450    6.9220    6.7520 N.ar  268  HIS268     -0.2212
    133  N          6.7380    6.9970    6.6570 N.am  269  LEU269     -0.1980
    134  CA         6.0580    6.0740    7.5670 C.3   269  LEU269      0.1596
    135  C          4.8230    5.4480    6.9200 C.2   269  LEU269      0.2287
    136  O          3.6860    5.5870    7.3930 O.2   269  LEU269     -0.2864
    137  CB         5.6940    6.7870    8.8700 C.3   269  LEU269      0.0297
    138  CG         6.8980    7.4090    9.5860 C.3   269  LEU269      0.0022
    139  CD1        6.4460    8.0890   10.8720 C.3   269  LEU269      0.0001
    140  CD2        7.9400    6.3220    9.8880 C.3   269  LEU269      0.0001
@<TRIPOS>BOND
     1   117   116    2
     2   116   115    1
     3   114   115    1
     4   115   118    1
     5   118   119    1
     6   123   124    1
     7   124   127    1
     8   124   125    1
     9   119   120    1
    10   129   131   ar
    11   129   128   ar
    12   127   128    1
    13   131   132   ar
    14   126   125    2
    15   125   133   am
    16    64    65    1
    17   128   130   ar
    18   120   121   ar
    19   120   122   ar
    20   133   134    1
    21    38    37    2
    22   132   130   ar
    23   135   136    2
    24   135   134    1
    25    36    35    1
    26    36    37    1
    27    36    39    1
    28    35    31   am
    29    65    66    1
    30    65    68    1
    31    67    66    2
    32    37    40   am
    33    55    54    2
    34    52    53    1
    35   108   107    2
    36   134   137    1
    37    54    53    1
    38    30    31    1
    39    30    29    1
    40    30    33    1
    41    53    56    1
    42    31    32    2
    43   107   106    1
    44    68    69    1
    45    40    41    1
    46    34    33    1
    47   137   138    1
    48    41    42    1
    49    41    44    1
    50    43    42    2
    51   109   106    1
    52   109   110    1
    53    70    69    1
    54   106   105    1
    55    58    60   ar
    56    58    57   ar
    57   113   111   ar
    58    69    71    1
    59   138   140    1
    60   138   139    1
    61    56    57    1
    62    60    62   ar
    63   110   111    1
    64    44    45    1
    65   111   112   ar
    66    57    59   ar
    67    47    45   ar
    68    47    49   ar
    69    45    46   ar
    70    49    50   ar
    71    62    63    1
    72    62    61   ar
    73    59    61   ar
    74    28    27    1
    75     8     7    2
    76    26    27   ar
    77    26    24   ar
    78    46    48   ar
    79     2     1    1
    80     2     3    1
    81    50    48   ar
    82    50    51    1
    83    27    25   ar
    84     5     3   am
    85     5     6    1
    86    24    22   ar
    87     7     6    1
    88   104   103    1
    89     3     4    2
    90    20    19    2
    91    25    23   ar
    92    78    76    1
    93    22    23   ar
    94    22    21    1
    95   103   101   ar
    96   103   102   ar
    97   101    99   ar
    98    77    76    1
    99    19    18    1
   100    21    18    1
   101    76    73    1
   102    92    90    1
   103   102   100   ar
   104    99    98   ar
   105    14    15    1
   106    14    13    1
   107    18    17    1
   108    16    15    1
   109    91    90    1
   110    96    95    2
   111    90    89    1
   112    73    72    1
   113    73    74    1
   114    13    10    1
   115   100    98   ar
   116    98    97    1
   117    95    94    1
   118    74    75    2
   119    94    97    1
   120    94    93    1
   121     9    10    1
   122    89    86    1
   123    10    11    1
   124    83    84    1
   125    83    80    1
   126    86    85    1
   127    86    87    1
   128    85    81   am
   129    11    12    2
   130    81    80    1
   131    81    82    2
   132    80    79    1
   133    87    88    2
