@<TRIPOS>MOLECULE
tmp/1xqwA02.pdb
 118 114 0 0 0
SMALL
GASTEIGER

@<TRIPOS>ATOM
      1  N         16.1620    5.7250   17.3960 N.3    37  MET37      -0.1245
      2  CA        14.7270    5.8350   17.6210 C.3    37  MET37       0.1570
      3  C         14.3500    4.7540   18.6230 C.2    37  MET37       0.2261
      4  O         14.9730    4.6250   19.6760 O.2    37  MET37      -0.2867
      5  CB        14.0000    5.5800   16.3130 C.3    37  MET37       0.0387
      6  CG        14.1560    6.6790   15.3340 C.3    37  MET37       0.0595
      7  SD        12.9640    7.8420   15.9580 S.3    37  MET37      -0.1393
      8  CE        13.7130    9.4170   15.6900 C.3    37  MET37       0.0692
      9  N         19.5840   25.4000   15.4120 N.3   162  TYR162     -0.1241
     10  CA        18.4080   24.5520   15.2710 C.3   162  TYR162      0.1605
     11  C         17.3480   24.8540   16.3190 C.2   162  TYR162      0.2264
     12  O         16.2680   24.2640   16.3000 O.2   162  TYR162     -0.2867
     13  CB        18.8070   23.0760   15.3650 C.3   162  TYR162      0.0534
     14  CG        20.0270   22.7160   14.5510 C.ar  162  TYR162     -0.0201
     15  CD1       21.2720   22.5780   15.1590 C.ar  162  TYR162     -0.0009
     16  CD2       19.9430   22.5260   13.1710 C.ar  162  TYR162     -0.0009
     17  CE1       22.4030   22.2560   14.4150 C.ar  162  TYR162      0.0417
     18  CE2       21.0690   22.2060   12.4200 C.ar  162  TYR162      0.0417
     19  CZ        22.2940   22.0730   13.0470 C.ar  162  TYR162      0.1957
     20  OH        23.4070   21.7410   12.3170 O.3   162  TYR162     -0.2866
     21  N         13.2550   28.0590   11.9000 N.3   167  TYR167     -0.1227
     22  CA        13.9270   26.8580   11.4240 C.3   167  TYR167      0.1736
     23  C         13.0870   25.6540   11.8220 C.2   167  TYR167      0.2595
     24  O         12.9030   24.7210   11.0420 O.2   167  TYR167     -0.2718
     25  CB        15.3110   26.7310   12.0570 C.3   167  TYR167      0.0548
     26  CG        16.0610   25.4900   11.6330 C.ar  167  TYR167     -0.0200
     27  CD1       16.6780   25.4150   10.3830 C.ar  167  TYR167     -0.0009
     28  CD2       16.1490   24.3820   12.4780 C.ar  167  TYR167     -0.0009
     29  CE1       17.3670   24.2710    9.9850 C.ar  167  TYR167      0.0417
     30  CE2       16.8370   23.2320   12.0880 C.ar  167  TYR167      0.0417
     31  CZ        17.4450   23.1830   10.8400 C.ar  167  TYR167      0.1957
     32  OH        18.1450   22.0600   10.4540 O.3   167  TYR167     -0.2866
     33  N         12.5830   25.6960   13.0490 N.am  168  GLN168     -0.1979
     34  CA        11.7630   24.6300   13.6030 C.3   168  GLN168      0.1601
     35  C         10.4820   24.4440   12.8010 C.2   168  GLN168      0.2287
     36  O         10.0650   23.3150   12.5400 O.2   168  GLN168     -0.2864
     37  CB        11.4260   24.9410   15.0670 C.3   168  GLN168      0.0394
     38  CG        10.7350   23.8080   15.8020 C.3   168  GLN168      0.0908
     39  CD        11.5310   22.5190   15.7380 C.2   168  GLN168      0.2608
     40  OE1       12.6810   22.4630   16.1750 O.2   168  GLN168     -0.2717
     41  NE2       10.9220   21.4740   15.1870 N.am  168  GLN168     -0.0878
     42  N         11.2860   22.6160    9.6950 N.3   171  VAL171     -0.1245
     43  CA        11.4750   21.1800    9.9000 C.3   171  VAL171      0.1561
     44  C         10.1140   20.4940    9.9910 C.2   171  VAL171      0.2260
     45  O          9.8860   19.4560    9.3650 O.2   171  VAL171     -0.2867
     46  CB        12.2600   20.8880   11.2060 C.3   171  VAL171      0.0252
     47  CG1       12.2270   19.4030   11.5110 C.3   171  VAL171      0.0019
     48  CG2       13.7020   21.3580   11.0700 C.3   171  VAL171      0.0019
     49  N          8.6940   17.5310    7.5460 N.3   175  TYR175     -0.1241
     50  CA         8.2510   16.2770    8.1620 C.3   175  TYR175      0.1605
     51  C          6.8220   15.9060    7.7700 C.2   175  TYR175      0.2264
     52  O          6.5300   14.7460    7.4530 O.2   175  TYR175     -0.2867
     53  CB         8.3440   16.3860    9.6910 C.3   175  TYR175      0.0534
     54  CG         9.7410   16.2240   10.2550 C.ar  175  TYR175     -0.0201
     55  CD1       10.8650   16.5050    9.4820 C.ar  175  TYR175     -0.0009
     56  CD2        9.9390   15.8000   11.5710 C.ar  175  TYR175     -0.0009
     57  CE1       12.1550   16.3680   10.0030 C.ar  175  TYR175      0.0417
     58  CE2       11.2280   15.6620   12.1050 C.ar  175  TYR175      0.0417
     59  CZ        12.3300   15.9460   11.3110 C.ar  175  TYR175      0.1957
     60  OH        13.6040   15.8110   11.8200 O.3   175  TYR175     -0.2866
     61  N         10.1000    9.3180   18.3530 N.3   193  LEU193     -0.1245
     62  CA        10.7510   10.6000   18.1230 C.3   193  LEU193      0.1561
     63  C         11.2800   11.1190   19.4550 C.2   193  LEU193      0.2260
     64  O         12.4250   11.5500   19.5560 O.2   193  LEU193     -0.2867
     65  CB         9.7590   11.6030   17.5300 C.3   193  LEU193      0.0270
     66  CG         9.3200   11.3840   16.0820 C.3   193  LEU193      0.0019
     67  CD1        8.1690   12.3230   15.7430 C.3   193  LEU193      0.0001
     68  CD2       10.4890   11.6220   15.1590 C.3   193  LEU193      0.0001
     69  N         14.3510    9.3550   20.5350 N.3   196  ALA196     -0.1231
     70  CA        15.5560    9.7530   19.8180 C.3   196  ALA196      0.1694
     71  C         16.1610   10.9980   20.4490 C.2   196  ALA196      0.2591
     72  O         17.3850   11.1280   20.5340 O.2   196  ALA196     -0.2718
     73  CB        15.2350   10.0140   18.3610 C.3   196  ALA196      0.0304
     74  N         15.2960   11.9080   20.8870 N.am  197  GLU197     -0.1979
     75  CA        15.7360   13.1510   21.5140 C.3   197  GLU197      0.1602
     76  C         16.2530   12.9210   22.9290 C.2   197  GLU197      0.2287
     77  O         17.1030   13.6650   23.4080 O.2   197  GLU197     -0.2864
     78  CB        14.5890   14.1650   21.5560 C.3   197  GLU197      0.0415
     79  CG        15.0010   15.5370   22.0610 C.3   197  GLU197      0.1163
     80  CD        13.8350   16.5070   22.1360 C.2   197  GLU197      0.3649
     81  OE1       13.1450   16.6980   21.1070 O.co2 197  GLU197     -0.2457
     82  OE2       13.6090   17.0790   23.2250 O.co2 197  GLU197     -0.2457
     83  N         20.9720    8.9950   18.3870 N.3   202  TYR202     -0.1241
     84  CA        20.5140    9.8300   17.2880 C.3   202  TYR202      0.1605
     85  C         21.4490   11.0220   17.0350 C.2   202  TYR202      0.2264
     86  O         21.7900   11.3340   15.8910 O.2   202  TYR202     -0.2867
     87  CB        19.1040   10.3400   17.5760 C.3   202  TYR202      0.0534
     88  CG        18.4260   10.9120   16.3580 C.ar  202  TYR202     -0.0201
     89  CD1       18.2330   10.1300   15.2200 C.ar  202  TYR202     -0.0009
     90  CD2       17.9750   12.2320   16.3390 C.ar  202  TYR202     -0.0009
     91  CE1       17.6140   10.6460   14.0860 C.ar  202  TYR202      0.0417
     92  CE2       17.3550   12.7620   15.2040 C.ar  202  TYR202      0.0417
     93  CZ        17.1730   11.9610   14.0840 C.ar  202  TYR202      0.1957
     94  OH        16.5480   12.4760   12.9710 O.3   202  TYR202     -0.2866
     95  N         21.3370   16.4630   14.0140 N.3   208  PRO208     -0.2102
     96  CA        20.2340   17.3020   14.4980 C.3   208  PRO208      0.1504
     97  C         18.8320   16.8670   14.0690 C.2   208  PRO208      0.2576
     98  O         17.8720   16.9820   14.8400 O.2   208  PRO208     -0.2718
     99  CB        20.5890   18.6800   13.9500 C.3   208  PRO208      0.0282
    100  CG        22.0700   18.6630   13.9510 C.3   208  PRO208      0.0208
    101  CD        22.3710   17.2960   13.3770 C.3   208  PRO208      0.0893
    102  N         18.7050   16.3730   12.8420 N.am  209  ASN209     -0.1961
    103  CA        17.3970   15.9580   12.3570 C.3   209  ASN209      0.1819
    104  C         17.4800   15.0540   11.1290 C.2   209  ASN209      0.2621
    105  O         18.5650   14.7390   10.6390 O.2   209  ASN209     -0.2715
    106  CB        16.5590   17.1980   12.0320 C.3   209  ASN209      0.1195
    107  CG        17.2110   18.0750   10.9870 C.2   209  ASN209      0.2630
    108  OD1       17.4070   17.6570    9.8440 O.2   209  ASN209     -0.2716
    109  ND2       17.5610   19.2990   11.3760 N.am  209  ASN209     -0.0877
    110  N         16.3100   14.6610   10.6350 N.am  210  GLU210     -0.1977
    111  CA        16.1710   13.7790    9.4760 C.3   210  GLU210      0.1602
    112  C         16.9680   14.1490    8.2370 C.2   210  GLU210      0.2287
    113  O         17.5090   13.2720    7.5630 O.2   210  GLU210     -0.2864
    114  CB        14.6990   13.6750    9.0910 C.3   210  GLU210      0.0415
    115  CG        13.8530   12.9080   10.0840 C.3   210  GLU210      0.1163
    116  CD        14.2790   11.4590   10.1940 C.2   210  GLU210      0.3649
    117  OE1       15.2430   11.1600   10.9370 O.co2 210  GLU210     -0.2457
    118  OE2       13.6660   10.6030    9.5200 O.co2 210  GLU210     -0.2457
@<TRIPOS>BOND
     1    52    51    2
     2    49    50    1
     3   113   112    2
     4    51    50    1
     5    50    53    1
     6   112   111    1
     7   114   111    1
     8   114   115    1
     9    45    44    2
    10   111   110    1
    11    55    57   ar
    12    55    54   ar
    13   118   116   ar
    14    53    54    1
    15    42    43    1
    16   108   107    2
    17    43    44    1
    18    43    46    1
    19    29    27   ar
    20    29    31   ar
    21    57    59   ar
    22   115   116    1
    23   116   117   ar
    24    54    56   ar
    25    27    26   ar
    26    32    31    1
    27   110   104   am
    28   105   104    2
    29    31    30   ar
    30   107   109   am
    31   107   106    1
    32    24    23    2
    33    48    46    1
    34   104   103    1
    35    46    47    1
    36    59    60    1
    37    59    58   ar
    38    22    23    1
    39    22    21    1
    40    22    25    1
    41    56    58   ar
    42    26    25    1
    43    26    28   ar
    44    23    33   am
    45   106   103    1
    46    30    28   ar
    47    20    19    1
    48   103   102    1
    49    18    19   ar
    50    18    16   ar
    51    36    35    2
    52    35    34    1
    53   102    97   am
    54    94    93    1
    55    19    17   ar
    56    33    34    1
    57    16    14   ar
    58   101   100    1
    59   101    95    1
    60    34    37    1
    61    99   100    1
    62    99    96    1
    63    95    96    1
    64    97    96    1
    65    97    98    2
    66    93    91   ar
    67    93    92   ar
    68    91    89   ar
    69    17    15   ar
    70    14    15   ar
    71    14    13    1
    72    37    38    1
    73    68    66    1
    74    41    39   am
    75    92    90   ar
    76    89    88   ar
    77    10    13    1
    78    10     9    1
    79    10    11    1
    80     6     7    1
    81     6     5    1
    82     8     7    1
    83    39    38    1
    84    39    40    2
    85    67    66    1
    86    86    85    2
    87    66    65    1
    88    12    11    2
    89     5     2    1
    90    90    88   ar
    91    88    87    1
    92    85    84    1
    93    84    87    1
    94    84    83    1
    95     1     2    1
    96    65    62    1
    97     2     3    1
    98    62    61    1
    99    62    63    1
   100    73    70    1
   101     3     4    2
   102    63    64    2
   103    70    71    1
   104    70    69    1
   105    71    72    2
   106    71    74   am
   107    74    75    1
   108    81    80   ar
   109    75    78    1
   110    75    76    1
   111    78    79    1
   112    79    80    1
   113    80    82   ar
   114    76    77    2
