@<TRIPOS>MOLECULE
tmp/1xqwA00.pdb
 114 104 0 0 0
SMALL
GASTEIGER

@<TRIPOS>ATOM
      1  N         14.3860    2.6280   12.7330 N.3    33  GLY33      -0.1210
      2  CA        15.3420    3.5580   12.1670 C.3    33  GLY33       0.1956
      3  C         16.0310    4.4870   13.1590 C.2    33  GLY33       0.2612
      4  O         16.2560    4.1430   14.3240 O.2    33  GLY33      -0.2717
      5  N         16.3620    5.6840   12.6870 N.am   34  GLY34      -0.1956
      6  CA        17.0480    6.6410   13.5280 C.3    34  GLY34       0.1869
      7  C         18.3130    7.0660   12.8060 C.2    34  GLY34       0.2309
      8  O         18.2410    7.9130   11.9250 O.2    34  GLY34      -0.2863
      9  N         14.0950    2.6120    7.0280 N.3   102  ALA102     -0.1231
     10  CA        15.0530    3.7100    6.9290 C.3   102  ALA102      0.1694
     11  C         16.4330    3.2410    7.3660 C.2   102  ALA102      0.2592
     12  O         17.0120    2.3690    6.7250 O.2   102  ALA102     -0.2718
     13  CB        14.5800    4.8810    7.7820 C.3   102  ALA102      0.0304
     14  N         16.9810    3.8060    8.4400 N.am  103  TYR103     -0.1976
     15  CA        18.2980    3.3460    8.8850 C.3   103  TYR103      0.1639
     16  C         18.2240    1.8510    9.1750 C.2   103  TYR103      0.2290
     17  O         19.1910    1.1170    8.9660 O.2   103  TYR103     -0.2864
     18  CB        18.7500    4.0810   10.1460 C.3   103  TYR103      0.0560
     19  CG        19.8410    3.3410   10.8950 C.ar  103  TYR103     -0.0198
     20  CD1       19.5360    2.5340   11.9960 C.ar  103  TYR103     -0.0009
     21  CD2       21.1710    3.4210   10.4850 C.ar  103  TYR103     -0.0009
     22  CE1       20.5300    1.8290   12.6680 C.ar  103  TYR103      0.0417
     23  CE2       22.1710    2.7170   11.1510 C.ar  103  TYR103      0.0417
     24  CZ        21.8440    1.9260   12.2420 C.ar  103  TYR103      0.1957
     25  OH        22.8300    1.2400   12.9160 O.3   103  TYR103     -0.2866
     26  N         18.0750    2.5800    2.6590 N.3   128  LEU128     -0.1245
     27  CA        19.1330    3.1380    1.8350 C.3   128  LEU128      0.1561
     28  C         20.3630    2.2550    1.8770 C.2   128  LEU128      0.2260
     29  O         20.5740    1.5160    2.8400 O.2   128  LEU128     -0.2867
     30  CB        19.5020    4.5390    2.3370 C.3   128  LEU128      0.0270
     31  CG        19.8610    4.6360    3.8240 C.3   128  LEU128      0.0019
     32  CD1       21.0670    5.5250    4.0070 C.3   128  LEU128      0.0001
     33  CD2       18.6730    5.1610    4.6140 C.3   128  LEU128      0.0001
     34  N         24.2990    6.6120    2.4560 N.3   131  VAL131     -0.1245
     35  CA        23.8710    7.8060    3.1670 C.3   131  VAL131      0.1561
     36  C         24.1060    9.0440    2.3050 C.2   131  VAL131      0.2260
     37  O         23.2490    9.9220    2.2290 O.2   131  VAL131     -0.2867
     38  CB        24.6230    7.9670    4.5090 C.3   131  VAL131      0.0252
     39  CG1       24.1560    9.2390    5.2220 C.3   131  VAL131      0.0019
     40  CG2       24.3940    6.7430    5.3870 C.3   131  VAL131      0.0019
     41  N         21.4090    9.4690   -0.1920 N.3   134  THR134     -0.1218
     42  CA        20.1870    9.8840    0.4980 C.3   134  THR134      0.1862
     43  C         20.2390   11.3820    0.7940 C.2   134  THR134      0.2287
     44  O         19.2340   12.0820    0.6750 O.2   134  THR134     -0.2866
     45  CB        20.0100    9.1330    1.8380 C.3   134  THR134      0.1770
     46  OG1       19.9260    7.7200    1.5960 O.3   134  THR134     -0.2211
     47  CG2       18.7350    9.5900    2.5360 C.3   134  THR134      0.0375
     48  N         17.7720   14.3200   -0.4390 N.3   138  MET138     -0.1245
     49  CA        17.0880   15.1340    0.5630 C.3   138  MET138      0.1570
     50  C         17.3410   16.6130    0.3000 C.2   138  MET138      0.2261
     51  O         16.4610   17.4560    0.4980 O.2   138  MET138     -0.2867
     52  CB        17.5620   14.7860    1.9740 C.3   138  MET138      0.0387
     53  CG        17.0290   13.4640    2.5120 C.3   138  MET138      0.0595
     54  SD        17.2790   13.3050    4.2940 S.3   138  MET138     -0.1393
     55  CE        18.9670   12.8370    4.3360 C.3   138  MET138      0.0692
     56  N         23.4670   10.0250   13.8290 N.3   206  ASN206     -0.1240
     57  CA        22.7210   10.7140   12.7790 C.3   206  ASN206      0.1653
     58  C         22.9960   12.2110   12.6740 C.2   206  ASN206      0.2266
     59  O         23.6690   12.6630   11.7470 O.2   206  ASN206     -0.2867
     60  CB        21.2160   10.5000   12.9670 C.3   206  ASN206      0.1155
     61  CG        20.3860   11.3520   12.0170 C.2   206  ASN206      0.2627
     62  OD1       19.7240   12.3080   12.4260 O.2   206  ASN206     -0.2716
     63  ND2       20.4330   11.0140   10.7390 N.am  206  ASN206     -0.0877
     64  N         16.3100   14.6610   10.6350 N.3   210  GLU210     -0.1245
     65  CA        16.1710   13.7790    9.4760 C.3   210  GLU210      0.1567
     66  C         16.9680   14.1490    8.2370 C.2   210  GLU210      0.2260
     67  O         17.5090   13.2720    7.5630 O.2   210  GLU210     -0.2867
     68  CB        14.6990   13.6750    9.0910 C.3   210  GLU210      0.0388
     69  CG        13.8530   12.9080   10.0840 C.3   210  GLU210      0.1160
     70  CD        14.2790   11.4590   10.1940 C.2   210  GLU210      0.3649
     71  OE1       15.2430   11.1600   10.9370 O.co2 210  GLU210     -0.2457
     72  OE2       13.6660   10.6030    9.5200 O.co2 210  GLU210     -0.2457
     73  N         21.9910   15.0000    8.3830 N.3   213  ILE213     -0.1245
     74  CA        22.7900   13.8460    8.7760 C.3   213  ILE213      0.1561
     75  C         24.2880   14.1530    8.7890 C.2   213  ILE213      0.2260
     76  O         24.9900   13.9510    7.7960 O.2   213  ILE213     -0.2867
     77  CB        22.5420   12.6740    7.8220 C.3   213  ILE213      0.0252
     78  CG1       21.0370   12.5670    7.5560 C.3   213  ILE213      0.0019
     79  CG2       23.0410   11.3750    8.4720 C.3   213  ILE213      0.0019
     80  CD1       20.7300   11.8110    6.3450 C.3   213  ILE213      0.0001
     81  N         27.6570    8.3180   10.4890 N.3   217  ILE217     -0.1245
     82  CA        27.2940    7.4530    9.3690 C.3   217  ILE217      0.1561
     83  C         27.1840    8.2140    8.0540 C.2   217  ILE217      0.2260
     84  O         26.9130    7.6180    7.0100 O.2   217  ILE217     -0.2867
     85  CB        25.9480    6.7500    9.6060 C.3   217  ILE217      0.0252
     86  CG1       24.8400    7.7970    9.7200 C.3   217  ILE217      0.0019
     87  CG2       26.0220    5.8770   10.8550 C.3   217  ILE217      0.0019
     88  CD1       23.4510    7.2110    9.7390 C.3   217  ILE217      0.0001
     89  N         11.0730   10.8330    2.4190 N.3   242  GLU242     -0.1231
     90  CA        12.2710   11.6520    2.6170 C.3   242  GLU242      0.1699
     91  C         13.4730   10.8700    2.0670 C.2   242  GLU242      0.2592
     92  O         14.4960   11.4580    1.7180 O.2   242  GLU242     -0.2718
     93  CB        12.4710   11.9710    4.1050 C.3   242  GLU242      0.0402
     94  CG        12.4140   10.7620    5.0060 C.3   242  GLU242      0.1161
     95  CD        12.7590   11.0900    6.4390 C.2   242  GLU242      0.3649
     96  OE1       12.3550   12.1700    6.9210 O.co2 242  GLU242     -0.2457
     97  OE2       13.4260   10.2560    7.0890 O.co2 242  GLU242     -0.2457
     98  N         13.3440    9.5430    2.0260 N.am  243  VAL243     -0.1980
     99  CA        14.3740    8.6610    1.4510 C.3   243  VAL243      0.1595
    100  C         13.7160    8.2240    0.1440 C.2   243  VAL243      0.2287
    101  O         13.1400    7.1330    0.0580 O.2   243  VAL243     -0.2864
    102  CB        14.6310    7.4010    2.3150 C.3   243  VAL243      0.0276
    103  CG1       15.6770    6.5170    1.6360 C.3   243  VAL243      0.0022
    104  CG2       15.1210    7.7970    3.6900 C.3   243  VAL243      0.0022
    105  N          7.4210    8.5000    4.2050 N.3   268  HIS268     -0.1241
    106  CA         8.3310    7.5820    4.8880 C.3   268  HIS268      0.1621
    107  C          7.6520    6.5520    5.7960 C.2   268  HIS268      0.2264
    108  O          7.9620    5.3610    5.7180 O.2   268  HIS268     -0.2867
    109  CB         9.3490    8.3910    5.6940 C.3   268  HIS268      0.0745
    110  CG        10.6100    7.6460    6.0080 C.ar  268  HIS268      0.0817
    111  ND1       11.0670    6.6010    5.2360 N.ar  268  HIS268     -0.2268
    112  CD2       11.5470    7.8410    6.9650 C.ar  268  HIS268      0.1154
    113  CE1       12.2300    6.1860    5.7020 C.ar  268  HIS268      0.1986
    114  NE2       12.5450    6.9220    6.7520 N.ar  268  HIS268     -0.2212
@<TRIPOS>BOND
     1    48    49    1
     2    41    42    1
     3   101   100    2
     4   100    99    1
     5    50    51    2
     6    50    49    1
     7    42    43    1
     8    42    45    1
     9    49    52    1
    10    44    43    2
    11    99    98    1
    12    99   102    1
    13    46    45    1
    14   103   102    1
    15    92    91    2
    16    27    28    1
    17    27    30    1
    18    27    26    1
    19    45    47    1
    20    28    29    2
    21    52    53    1
    22    98    91   am
    23    91    90    1
    24    37    36    2
    25    36    35    1
    26   102   104    1
    27    30    31    1
    28    89    90    1
    29    34    35    1
    30    53    54    1
    31    90    93    1
    32    35    38    1
    33    31    32    1
    34    31    33    1
    35    93    94    1
    36   105   106    1
    37    54    55    1
    38    38    39    1
    39    38    40    1
    40   106   109    1
    41   106   107    1
    42    94    95    1
    43   111   113   ar
    44   111   110   ar
    45   109   110    1
    46   113   114   ar
    47   108   107    2
    48   110   112   ar
    49    80    78    1
    50    95    96   ar
    51    95    97   ar
    52    12    11    2
    53   114   112   ar
    54    10     9    1
    55    10    11    1
    56    10    13    1
    57    84    83    2
    58    11    14   am
    59    78    77    1
    60    67    66    2
    61    76    75    2
    62    77    79    1
    63    77    74    1
    64    83    82    1
    65    66    65    1
    66    73    74    1
    67    14    15    1
    68    74    75    1
    69    15    16    1
    70    15    18    1
    71    17    16    2
    72    68    65    1
    73    68    69    1
    74    82    85    1
    75    82    81    1
    76    65    64    1
    77    72    70   ar
    78    85    86    1
    79    85    87    1
    80    86    88    1
    81    69    70    1
    82    18    19    1
    83    70    71   ar
    84    21    19   ar
    85    21    23   ar
    86    63    61   am
    87    19    20   ar
    88    23    24   ar
    89    59    58    2
    90     8     7    2
    91    20    22   ar
    92    61    62    2
    93    61    60    1
    94     2     1    1
    95     2     3    1
    96    24    22   ar
    97    24    25    1
    98    58    57    1
    99     5     3   am
   100     5     6    1
   101    57    60    1
   102    57    56    1
   103     7     6    1
   104     3     4    2
