@<TRIPOS>MOLECULE
tmp/1xr1A00.pdb
 184 172 0 0 0
SMALL
GASTEIGER

@<TRIPOS>ATOM
      1  N         80.3820   38.6570    4.5720 N.3    13  LEU13      -0.1231
      2  CA        78.9540   38.5520    4.8670 C.3    13  LEU13       0.1693
      3  C         78.6080   37.3080    5.6710 C.2    13  LEU13       0.2592
      4  O         77.5930   37.2760    6.3660 O.2    13  LEU13      -0.2718
      5  CB        78.1420   38.5480    3.5670 C.3    13  LEU13       0.0284
      6  CG        78.1430   39.8240    2.7230 C.3    13  LEU13       0.0019
      7  CD1       77.3810   39.5910    1.4250 C.3    13  LEU13       0.0001
      8  CD2       77.5090   40.9500    3.5090 C.3    13  LEU13       0.0001
      9  N         79.4500   36.2850    5.5650 N.am   14  GLY14      -0.1957
     10  CA        79.2070   35.0450    6.2810 C.3    14  GLY14       0.1869
     11  C         78.5810   35.2240    7.6530 C.2    14  GLY14       0.2309
     12  O         77.3610   35.3860    7.7710 O.2    14  GLY14      -0.2863
     13  N         78.9350   32.9820   10.6110 N.3    16  GLY16      -0.1210
     14  CA        78.3120   31.7500   11.0480 C.3    16  GLY16       0.1956
     15  C         78.6860   30.5580   10.1900 C.2    16  GLY16       0.2612
     16  O         77.9600   30.1990    9.2610 O.2    16  GLY16      -0.2717
     17  N         79.8210   29.9410   10.5040 N.am   17  GLY17      -0.1942
     18  CA        80.2670   28.7860    9.7520 C.3    17  GLY17       0.2014
     19  C         81.2980   29.1160    8.6910 C.2    17  GLY17       0.2639
     20  O         81.7320   30.2630    8.5600 O.2    17  GLY17      -0.2714
     21  N         81.6920   28.0940    7.9350 N.am   18  PHE18      -0.1959
     22  CA        82.6730   28.2320    6.8620 C.3    18  PHE18       0.1771
     23  C         82.0770   28.9930    5.6770 C.2    18  PHE18       0.2620
     24  O         81.0270   29.6420    5.7960 O.2    18  PHE18      -0.2715
     25  CB        83.1370   26.8490    6.4030 C.3    18  PHE18       0.0574
     26  CG        83.6610   25.9910    7.5180 C.ar   18  PHE18      -0.0200
     27  CD1       84.9240   26.2080    8.0460 C.ar   18  PHE18      -0.0042
     28  CD2       82.8760   24.9840    8.0620 C.ar   18  PHE18      -0.0042
     29  CE1       85.3970   25.4390    9.0980 C.ar   18  PHE18      -0.0003
     30  CE2       83.3430   24.2110    9.1150 C.ar   18  PHE18      -0.0003
     31  CZ        84.6070   24.4410    9.6330 C.ar   18  PHE18      -0.0000
     32  N         82.7390   28.8970    4.5290 N.am   19  GLY19      -0.1940
     33  CA        82.2610   29.6060    3.3590 C.3    19  GLY19       0.2014
     34  C         82.8990   30.9800    3.3430 C.2    19  GLY19       0.2640
     35  O         83.2870   31.4980    4.3910 O.2    19  GLY19      -0.2714
     36  N         83.0100   31.5810    2.1650 N.am   20  SER20      -0.1935
     37  CA        83.6240   32.8910    2.0740 C.3    20  SER20       0.2055
     38  C         82.9070   33.7680    1.0740 C.2    20  SER20       0.2642
     39  O         83.2360   33.7600   -0.1070 O.2    20  SER20      -0.2714
     40  CB        85.0890   32.7570    1.6600 C.3    20  SER20       0.2130
     41  OG        85.7490   31.7920    2.4540 O.3    20  SER20      -0.2179
     42  N         81.9170   34.5170    1.5350 N.am   21  VAL21      -0.1977
     43  CA        81.2000   35.4150    0.6430 C.3    21  VAL21       0.1596
     44  C         81.2610   36.8140    1.2350 C.2    21  VAL21       0.2287
     45  O         80.7720   37.0620    2.3410 O.2    21  VAL21      -0.2864
     46  CB        79.7360   34.9740    0.4410 C.3    21  VAL21       0.0276
     47  CG1       79.2980   34.1340    1.5930 C.3    21  VAL21       0.0022
     48  CG2       78.8390   36.1960    0.2850 C.3    21  VAL21       0.0022
     49  N         77.4160   40.2500   -4.2230 N.3    34  ALA34      -0.1245
     50  CA        77.9580   39.3540   -3.2220 C.3    34  ALA34       0.1562
     51  C         79.0000   38.4860   -3.9000 C.2    34  ALA34       0.2260
     52  O         78.7150   37.7830   -4.8670 O.2    34  ALA34      -0.2867
     53  CB        76.8540   38.4950   -2.6260 C.3    34  ALA34       0.0290
     54  N         81.0620   35.3660   -3.7440 N.3    36  LYS36      -0.1245
     55  CA        81.2170   34.0910   -3.0610 C.3    36  LYS36       0.1561
     56  C         82.3990   33.3260   -3.6260 C.2    36  LYS36       0.2260
     57  O         82.4460   33.0590   -4.8170 O.2    36  LYS36      -0.2867
     58  CB        79.9460   33.2530   -3.1990 C.3    36  LYS36       0.0271
     59  CG        80.0770   31.8410   -2.6590 C.3    36  LYS36       0.0035
     60  CD        78.7400   31.0930   -2.7570 C.3    36  LYS36       0.0206
     61  CE        78.8000   29.6970   -2.1280 C.3    36  LYS36       0.1093
     62  NZ        77.4970   28.9710   -2.2100 N.3    36  LYS36      -0.1314
     63  N         87.3910   21.6380   -2.1590 N.3    42  ARG42      -0.1245
     64  CA        86.1160   21.2750   -1.5530 C.3    42  ARG42       0.1563
     65  C         84.9260   21.2870   -2.5100 C.2    42  ARG42       0.2260
     66  O         83.8010   21.5990   -2.1090 O.2    42  ARG42      -0.2867
     67  CB        85.8310   22.1960   -0.3610 C.3    42  ARG42       0.0307
     68  CG        85.9590   23.6810   -0.6680 C.3    42  ARG42       0.0489
     69  CD        84.6150   24.4070   -0.5660 C.3    42  ARG42       0.2205
     70  NE        84.7940   25.8550   -0.4510 N.pl3  42  ARG42      -0.0865
     71  CZ        83.8130   26.7240   -0.2260 C.cat  42  ARG42       0.5346
     72  NH1       84.0910   28.0200   -0.1340 N.pl3  42  ARG42       0.1354
     73  NH2       82.5580   26.3020   -0.0930 N.pl3  42  ARG42       0.1354
     74  N         68.4520   34.3060   -6.4450 N.3    73  ILE73      -0.1245
     75  CA        69.5110   35.2730   -6.7240 C.3    73  ILE73       0.1561
     76  C         70.1760   34.9020   -8.0310 C.2    73  ILE73       0.2260
     77  O         70.4350   33.7310   -8.3010 O.2    73  ILE73      -0.2867
     78  CB        70.5990   35.3250   -5.6220 C.3    73  ILE73       0.0252
     79  CG1       70.7950   33.9370   -5.0080 C.3    73  ILE73       0.0019
     80  CG2       70.2240   36.3630   -4.5720 C.3    73  ILE73       0.0019
     81  CD1       71.2720   32.8450   -5.9700 C.3    73  ILE73       0.0001
     82  N         77.1610   37.3770   -7.2390 N.3    89  LEU89      -0.1231
     83  CA        75.7140   37.2610   -7.1400 C.3    89  LEU89       0.1693
     84  C         75.0990   38.6180   -6.8710 C.2    89  LEU89       0.2592
     85  O         75.7560   39.4940   -6.3270 O.2    89  LEU89      -0.2718
     86  CB        75.3610   36.3280   -5.9850 C.3    89  LEU89       0.0284
     87  CG        76.1350   35.0100   -5.9470 C.3    89  LEU89       0.0019
     88  CD1       76.0770   34.4160   -4.5570 C.3    89  LEU89       0.0001
     89  CD2       75.5580   34.0580   -6.9470 C.3    89  LEU89       0.0001
     90  N         73.8430   38.8020   -7.2570 N.am   90  GLU90      -0.1966
     91  CA        73.1860   40.0660   -6.9780 C.3    90  GLU90       0.1733
     92  C         72.9400   40.0480   -5.4800 C.2    90  GLU90       0.2616
     93  O         72.7290   38.9840   -4.8980 O.2    90  GLU90      -0.2715
     94  CB        71.8600   40.1920   -7.7450 C.3    90  GLU90       0.0429
     95  CG        70.8840   39.0280   -7.5870 C.3    90  GLU90       0.1163
     96  CD        69.5520   39.2660   -8.3150 C.2    90  GLU90       0.3649
     97  OE1       68.7310   38.3210   -8.4140 O.co2  90  GLU90      -0.2457
     98  OE2       69.3200   40.4030   -8.7810 O.co2  90  GLU90      -0.2457
     99  N         73.0060   41.2150   -4.8490 N.am   91  ARG91      -0.1964
    100  CA        72.7850   41.3080   -3.4110 C.3    91  ARG91       0.1714
    101  C         71.7620   42.3760   -3.0690 C.2    91  ARG91       0.2458
    102  O         71.9960   43.5650   -3.2780 O.2    91  ARG91      -0.2730
    103  CB        74.0950   41.6170   -2.6760 C.3    91  ARG91       0.0347
    104  CG        73.9050   41.9260   -1.1860 C.3    91  ARG91       0.0492
    105  CD        75.2370   42.1430   -0.4780 C.3    91  ARG91       0.2205
    106  NE        75.9430   43.3240   -0.9720 N.pl3  91  ARG91      -0.0865
    107  CZ        75.6170   44.5750   -0.6630 C.cat  91  ARG91       0.5346
    108  NH1       76.3140   45.5850   -1.1640 N.pl3  91  ARG91       0.1354
    109  NH2       74.6030   44.8150    0.1600 N.pl3  91  ARG91       0.1354
    110  N         70.6070   41.9630   -2.5350 N.am   92  PRO92      -0.2727
    111  CA        69.5660   42.9260   -2.1700 C.3    92  PRO92       0.1402
    112  C         69.9930   43.7340   -0.9490 C.2    92  PRO92       0.2269
    113  O         70.8940   43.3320   -0.2020 O.2    92  PRO92      -0.2865
    114  CB        68.3530   42.0380   -1.8950 C.3    92  PRO92       0.0296
    115  CG        68.9820   40.7900   -1.3350 C.3    92  PRO92       0.0237
    116  CD        70.1910   40.5790   -2.2330 C.3    92  PRO92       0.0939
    117  N         68.7630   43.5080    3.4560 N.3    95  VAL95      -0.1245
    118  CA        68.5160   42.0810    3.3190 C.3    95  VAL95       0.1561
    119  C         68.6880   41.3900    4.6700 C.2    95  VAL95       0.2260
    120  O         69.3710   41.9020    5.5580 O.2    95  VAL95      -0.2867
    121  CB        69.4930   41.4480    2.3020 C.3    95  VAL95       0.0252
    122  CG1       70.9070   41.4600    2.8640 C.3    95  VAL95       0.0019
    123  CG2       69.0580   40.0390    1.9650 C.3    95  VAL95       0.0019
    124  N         68.3890   37.0260    6.1690 N.3    97  ASP97      -0.1239
    125  CA        67.9500   35.6820    5.8530 C.3    97  ASP97       0.1674
    126  C         66.7980   35.2250    6.7410 C.2    97  ASP97       0.2266
    127  O         66.5890   35.7540    7.8270 O.2    97  ASP97      -0.2867
    128  CB        69.1340   34.7030    5.8700 C.3    97  ASP97       0.1410
    129  CG        69.6710   34.4320    7.2500 C.2    97  ASP97       0.3668
    130  OD1       70.8850   34.1500    7.3550 O.co2  97  ASP97      -0.2456
    131  OD2       68.8910   34.4710    8.2230 O.co2  97  ASP97      -0.2456
    132  N         68.7310   21.8130   -0.8640 N.3   136  ASP136     -0.1239
    133  CA        69.1150   22.3850    0.4160 C.3   136  ASP136      0.1674
    134  C         68.2140   23.5460    0.8150 C.2   136  ASP136      0.2266
    135  O         68.6760   24.5850    1.2940 O.2   136  ASP136     -0.2867
    136  CB        70.5830   22.8280    0.3490 C.3   136  ASP136      0.1410
    137  CG        71.1480   23.1970    1.7070 C.2   136  ASP136      0.3668
    138  OD1       70.8220   22.5170    2.7050 O.co2 136  ASP136     -0.2456
    139  OD2       71.9350   24.1640    1.7760 O.co2 136  ASP136     -0.2456
    140  N         67.9320   29.1520    6.2560 N.3   140  GLU140     -0.1231
    141  CA        69.2520   29.7490    6.0680 C.3   140  GLU140      0.1699
    142  C         69.5290   30.0670    4.6120 C.2   140  GLU140      0.2592
    143  O         70.1830   31.0600    4.3020 O.2   140  GLU140     -0.2718
    144  CB        70.3490   28.8070    6.5590 C.3   140  GLU140      0.0402
    145  CG        70.2530   28.4350    8.0230 C.3   140  GLU140      0.1161
    146  CD        71.4570   27.6520    8.4830 C.2   140  GLU140      0.3649
    147  OE1       72.5850   28.1620    8.3010 O.co2 140  GLU140     -0.2457
    148  OE2       71.2790   26.5360    9.0160 O.co2 140  GLU140     -0.2457
    149  N         69.0290   29.2150    3.7200 N.am  141  ASN141     -0.1974
    150  CA        69.2510   29.4020    2.2960 C.3   141  ASN141      0.1688
    151  C         68.2580   30.2780    1.5410 C.2   141  ASN141      0.2292
    152  O         68.1390   30.1830    0.3110 O.2   141  ASN141     -0.2864
    153  CB        69.3950   28.0440    1.6030 C.3   141  ASN141      0.1181
    154  CG        70.7800   27.4590    1.7790 C.2   141  ASN141      0.2629
    155  OD1       71.7580   28.1940    1.9160 O.2   141  ASN141     -0.2716
    156  ND2       70.8780   26.1420    1.7610 N.am  141  ASN141     -0.0877
    157  N         66.8240   34.4400    1.3210 N.3   143  LEU143     -0.1245
    158  CA        67.0180   35.8190    1.7590 C.3   143  LEU143      0.1561
    159  C         65.7530   36.6340    1.6220 C.2   143  LEU143      0.2260
    160  O         64.8760   36.3160    0.8240 O.2   143  LEU143     -0.2867
    161  CB        68.1130   36.5050    0.9390 C.3   143  LEU143      0.0270
    162  CG        69.5030   35.8810    0.9140 C.3   143  LEU143      0.0019
    163  CD1       70.4470   36.8180    0.1970 C.3   143  LEU143      0.0001
    164  CD2       69.9910   35.6300    2.3220 C.3   143  LEU143      0.0001
    165  N         68.9570   30.9980   -2.3950 N.3   154  ILE154     -0.1231
    166  CA        70.4080   31.0220   -2.6290 C.3   154  ILE154      0.1692
    167  C         71.1080   29.6950   -2.3140 C.2   154  ILE154      0.2592
    168  O         70.4920   28.7450   -1.8390 O.2   154  ILE154     -0.2718
    169  CB        71.1360   32.0980   -1.7740 C.3   154  ILE154      0.0266
    170  CG1       71.0510   31.7280   -0.2940 C.3   154  ILE154      0.0019
    171  CG2       70.5470   33.4750   -2.0110 C.3   154  ILE154      0.0020
    172  CD1       72.0780   32.4330    0.5640 C.3   154  ILE154      0.0001
    173  N         72.4140   29.6610   -2.5740 N.am  155  ASP155     -0.1974
    174  CA        73.2670   28.5010   -2.3200 C.3   155  ASP155      0.1709
    175  C         72.8820   27.2220   -3.0510 C.2   155  ASP155      0.2293
    176  O         72.1730   26.3700   -2.5000 O.2   155  ASP155     -0.2864
    177  CB        73.3480   28.2100   -0.8150 C.3   155  ASP155      0.1436
    178  CG        74.5000   27.2680   -0.4640 C.2   155  ASP155      0.3671
    179  OD1       75.3480   27.0400   -1.3520 O.co2 155  ASP155     -0.2456
    180  OD2       74.5770   26.7730    0.6910 O.co2 155  ASP155     -0.2456
    181  N         75.0980   25.1140   -3.9480 N.3   157  GLY157     -0.1225
    182  CA        76.2620   24.2700   -3.7270 C.3   157  GLY157      0.1811
    183  C         76.0040   22.7980   -3.4320 C.2   157  GLY157      0.2280
    184  O         76.9420   22.0060   -3.3490 O.2   157  GLY157     -0.2866
@<TRIPOS>BOND
     1    98    96   ar
     2    97    96   ar
     3    96    95    1
     4    77    76    2
     5    76    75    1
     6    94    95    1
     7    94    91    1
     8    90    91    1
     9    90    84   am
    10    82    83    1
    11    83    84    1
    12    83    86    1
    13    91    92    1
    14    89    87    1
    15    84    85    2
    16    75    74    1
    17    75    78    1
    18    86    87    1
    19    81    79    1
    20    87    88    1
    21    78    79    1
    22    78    80    1
    23    92    93    2
    24    92    99   am
    25    52    51    2
    26    99   100    1
    27    57    56    2
    28    49    50    1
    29   181   182    1
    30    51    50    1
    31    54    55    1
    32   182   183    1
    33    56    55    1
    34   183   184    2
    35   100   101    1
    36   100   103    1
    37   102   101    2
    38    50    53    1
    39    58    55    1
    40    58    59    1
    41   101   110   am
    42   175   176    2
    43   175   174    1
    44    60    59    1
    45    60    61    1
    46   103   104    1
    47   166   165    1
    48   166   167    1
    49   166   169    1
    50   173   174    1
    51   173   167   am
    52   110   116    1
    53   110   111    1
    54    65    66    2
    55    65    64    1
    56   174   177    1
    57   167   168    2
    58   116   115    1
    59    62    61    1
    60   111   114    1
    61   111   112    1
    62    63    64    1
    63   171   169    1
    64   114   115    1
    65   169   170    1
    66    64    67    1
    67   179   178   ar
    68   104   105    1
    69   108   107    1
    70   106   107    2
    71   106   105    1
    72   112   113    2
    73   132   133    1
    74   177   178    1
    75    68    69    1
    76    68    67    1
    77   107   109    1
    78    69    70    1
    79   178   180   ar
    80    70    71    2
    81   170   172    1
    82    71    72    1
    83    71    73    1
    84    39    38    2
    85   163   162    1
    86    48    46    1
    87   152   151    2
    88   136   133    1
    89   136   137    1
    90   133   134    1
    91    46    43    1
    92    46    47    1
    93    43    44    1
    94    43    42    1
    95   134   135    2
    96   160   159    2
    97   162   161    1
    98   162   164    1
    99   161   158    1
   100    38    42   am
   101    38    37    1
   102    44    45    2
   103   157   158    1
   104     7     6    1
   105   151   150    1
   106   153   154    1
   107   153   150    1
   108   159   158    1
   109    40    37    1
   110    40    41    1
   111   137   139   ar
   112   137   138   ar
   113   156   154   am
   114   154   155    2
   115   123   121    1
   116    37    36    1
   117    36    34   am
   118   150   149    1
   119   121   122    1
   120   121   118    1
   121     6     8    1
   122     6     5    1
   123   118   117    1
   124   118   119    1
   125    34    33    1
   126    34    35    2
   127    33    32    1
   128     5     2    1
   129   149   142   am
   130   143   142    2
   131    32    23   am
   132     1     2    1
   133   142   141    1
   134   119   120    2
   135     2     3    1
   136     9     3   am
   137     9    10    1
   138     3     4    2
   139    23    24    2
   140    23    22    1
   141   125   128    1
   142   125   124    1
   143   125   126    1
   144   128   129    1
   145   141   140    1
   146   141   144    1
   147    10    11    1
   148    25    22    1
   149    25    26    1
   150   144   145    1
   151   126   127    2
   152    22    21    1
   153   129   130   ar
   154   129   131   ar
   155    26    27   ar
   156    26    28   ar
   157    11    12    2
   158    21    19   am
   159   145   146    1
   160    27    29   ar
   161    28    30   ar
   162   147   146   ar
   163   146   148   ar
   164    20    19    2
   165    19    18    1
   166    29    31   ar
   167    30    31   ar
   168    16    15    2
   169    18    17    1
   170    15    17   am
   171    15    14    1
   172    13    14    1
