@<TRIPOS>MOLECULE
tmp/1xrkB01.pdb
 82 79 0 0 0
SMALL
GASTEIGER

@<TRIPOS>ATOM
      1  N         -0.1460   -7.7030   14.4400 N.3    11  THR11      -0.1218
      2  CA         0.1770   -8.9650   15.0840 C.3    11  THR11       0.1862
      3  C          0.5970   -9.9910   14.0340 C.2    11  THR11       0.2287
      4  O          0.2490   -9.8950   12.8560 O.2    11  THR11      -0.2866
      5  CB        -0.9710   -9.4700   15.9880 C.3    11  THR11       0.1770
      6  OG1       -2.1870   -9.6010   15.2430 O.3    11  THR11      -0.2211
      7  CG2       -1.1970   -8.5360   17.1560 C.3    11  THR11       0.0375
      8  N         13.2210   -0.2090   12.4060 N.3    31  VAL31      -0.1231
      9  CA        13.5850    0.5890   13.5760 C.3    31  VAL31       0.1692
     10  C         14.3220   -0.2960   14.5800 C.2    31  VAL31       0.2592
     11  O         15.3990    0.0590   15.0880 O.2    31  VAL31      -0.2718
     12  CB        12.3520    1.2170   14.2510 C.3    31  VAL31       0.0266
     13  CG1       12.7860    2.1770   15.3800 C.3    31  VAL31       0.0020
     14  CG2       11.5040    1.9650   13.2260 C.3    31  VAL31       0.0020
     15  N         13.7530   -1.4630   14.8380 N.am   32  PHE32      -0.1976
     16  CA        14.3630   -2.4640   15.7100 C.3    32  PHE32       0.1639
     17  C         13.6870   -3.7920   15.4370 C.2    32  PHE32       0.2290
     18  O         12.5290   -3.8100   15.0210 O.2    32  PHE32      -0.2864
     19  CB        14.2130   -2.0960   17.1900 C.3    32  PHE32       0.0560
     20  CG        12.7960   -2.0940   17.6810 C.ar   32  PHE32      -0.0200
     21  CD1       12.2300   -3.2380   18.2220 C.ar   32  PHE32      -0.0042
     22  CD2       12.0340   -0.9460   17.6250 C.ar   32  PHE32      -0.0042
     23  CE1       10.9380   -3.2410   18.6730 C.ar   32  PHE32      -0.0003
     24  CE2       10.7300   -0.9470   18.0780 C.ar   32  PHE32      -0.0003
     25  CZ        10.1800   -2.0890   18.5880 C.ar   32  PHE32      -0.0000
     26  N         13.2850   -7.6730   17.3110 N.3    34  GLU34      -0.1245
     27  CA        13.5090   -8.7160   18.3070 C.3    34  GLU34       0.1567
     28  C         12.7150   -9.9440   17.8820 C.2    34  GLU34       0.2260
     29  O         11.9300   -9.8950   16.9280 O.2    34  GLU34      -0.2867
     30  CB        13.0590   -8.2630   19.6990 C.3    34  GLU34       0.0388
     31  CG        13.8070   -7.0560   20.2190 C.3    34  GLU34       0.1160
     32  CD        13.1750   -6.4620   21.4580 C.2    34  GLU34       0.3649
     33  OE1       13.7530   -6.6110   22.5640 O.co2  34  GLU34      -0.2457
     34  OE2       12.0910   -5.8530   21.3340 O.co2  34  GLU34      -0.2457
     35  N         10.1760  -11.4650   19.2160 N.3    36  ASP36      -0.1225
     36  CA         8.7250  -11.4440   19.4510 C.3    36  ASP36       0.1805
     37  C          8.0890  -10.0670   19.2700 C.2    36  ASP36       0.2597
     38  O          6.9020   -9.8960   19.5360 O.2    36  ASP36      -0.2718
     39  CB         8.3990  -11.9540   20.8560 C.3    36  ASP36       0.1424
     40  CG         9.0370  -11.1220   21.9520 C.2    36  ASP36       0.3668
     41  OD1        9.8720  -10.2240   21.6560 O.co2  36  ASP36      -0.2456
     42  OD2        8.7070  -11.3860   23.1340 O.co2  36  ASP36      -0.2456
     43  N          8.8890   -9.0970   18.8370 N.am   37  PHE37      -0.1976
     44  CA         8.4210   -7.7140   18.7130 C.3    37  PHE37       0.1639
     45  C          9.3510   -6.9720   17.7930 C.2    37  PHE37       0.2290
     46  O         10.5550   -7.1910   17.8200 O.2    37  PHE37      -0.2864
     47  CB         8.4020   -7.0340   20.0820 C.3    37  PHE37       0.0560
     48  CG         7.4760   -5.8480   20.1700 C.ar   37  PHE37      -0.0200
     49  CD1        6.1240   -6.0150   20.3860 C.ar   37  PHE37      -0.0042
     50  CD2        7.9690   -4.5560   20.0590 C.ar   37  PHE37      -0.0042
     51  CE1        5.2750   -4.9160   20.4850 C.ar   37  PHE37      -0.0003
     52  CE2        7.1250   -3.4720   20.1620 C.ar   37  PHE37      -0.0003
     53  CZ         5.7800   -3.6540   20.3730 C.ar   37  PHE37      -0.0000
     54  N          4.4000   -1.0530   14.9370 N.3    48  PHE48      -0.1241
     55  CA         5.0030   -2.1610   15.6580 C.3    48  PHE48       0.1605
     56  C          4.3700   -3.4740   15.1980 C.2    48  PHE48       0.2264
     57  O          3.2780   -3.4960   14.6440 O.2    48  PHE48      -0.2867
     58  CB         4.8310   -1.9930   17.1710 C.3    48  PHE48       0.0534
     59  CG         5.5950   -0.8400   17.7740 C.ar   48  PHE48      -0.0203
     60  CD1        6.6860   -0.2840   17.1200 C.ar   48  PHE48      -0.0042
     61  CD2        5.2610   -0.3580   19.0280 C.ar   48  PHE48      -0.0042
     62  CE1        7.4040    0.7490   17.6850 C.ar   48  PHE48      -0.0003
     63  CE2        5.9850    0.6840   19.6110 C.ar   48  PHE48      -0.0003
     64  CZ         7.0590    1.2340   18.9460 C.ar   48  PHE48      -0.0000
     65  N          3.8680   -7.4850   16.7660 N.3    50  SER50      -0.1202
     66  CA         3.9810   -8.3130   17.9720 C.3    50  SER50       0.2020
     67  C          3.5880   -9.7560   17.7360 C.2    50  SER50       0.2619
     68  O          2.6040  -10.0340   17.0660 O.2    50  SER50      -0.2717
     69  CB         3.1130   -7.7110   19.0590 C.3    50  SER50       0.2103
     70  OG         3.2510   -8.4000   20.2950 O.3    50  SER50      -0.2182
     71  N          4.3640  -10.6790   18.3070 N.am   51  ALA51      -0.1965
     72  CA         4.0950  -12.0890   18.1670 C.3    51  ALA51       0.1728
     73  C          2.8380  -12.4920   18.9360 C.2    51  ALA51       0.2616
     74  O          2.5870  -12.0210   20.0540 O.2    51  ALA51      -0.2715
     75  CB         5.2920  -12.9010   18.6600 C.3    51  ALA51       0.0334
     76  N          2.0420  -13.3430   18.2960 N.am   52  VAL52      -0.1977
     77  CA         0.8690  -13.9450   18.9040 C.3    52  VAL52       0.1596
     78  C          0.8270  -15.4150   18.5170 C.2    52  VAL52       0.2287
     79  O          1.4940  -15.8450   17.5820 O.2    52  VAL52      -0.2864
     80  CB        -0.4410  -13.2540   18.4830 C.3    52  VAL52       0.0276
     81  CG1       -0.4140  -11.7990   18.8790 C.3    52  VAL52       0.0022
     82  CG2       -0.7040  -13.4320   17.0030 C.3    52  VAL52       0.0022
@<TRIPOS>BOND
     1     8     9    1
     2     4     3    2
     3    14    12    1
     4     9    12    1
     5     9    10    1
     6     3     2    1
     7    12    13    1
     8     1     2    1
     9    10    15   am
    10    10    11    2
    11    57    56    2
    12    15    16    1
    13    54    55    1
    14    18    17    2
    15     2     5    1
    16    56    55    1
    17     6     5    1
    18    17    16    1
    19    55    58    1
    20    16    19    1
    21     5     7    1
    22    65    66    1
    23    29    28    2
    24    82    80    1
    25    68    67    2
    26    60    62   ar
    27    60    59   ar
    28    58    59    1
    29    19    20    1
    30    26    27    1
    31    79    78    2
    32    22    20   ar
    33    22    24   ar
    34    20    21   ar
    35    62    64   ar
    36    67    66    1
    37    67    71   am
    38    59    61   ar
    39    45    46    2
    40    45    44    1
    41    28    27    1
    42    66    69    1
    43    24    25   ar
    44    72    71    1
    45    72    75    1
    46    72    73    1
    47    21    23   ar
    48    76    77    1
    49    76    73   am
    50    27    30    1
    51    80    81    1
    52    80    77    1
    53    78    77    1
    54    25    23   ar
    55    44    43    1
    56    44    47    1
    57    43    37   am
    58    73    74    2
    59    64    63   ar
    60    61    63   ar
    61    69    70    1
    62    35    36    1
    63    37    36    1
    64    37    38    2
    65    36    39    1
    66    30    31    1
    67    50    52   ar
    68    50    48   ar
    69    47    48    1
    70    52    53   ar
    71    48    49   ar
    72    31    32    1
    73    53    51   ar
    74    49    51   ar
    75    39    40    1
    76    34    32   ar
    77    32    33   ar
    78    41    40   ar
    79    40    42   ar
