@<TRIPOS>MOLECULE
tmp/1xrkB00.pdb
 171 166 0 0 0
SMALL
GASTEIGER

@<TRIPOS>ATOM
      1  N         -3.9480  -17.4500   14.9500 N.3    55  GLN55      -0.1245
      2  CA        -4.2740  -16.7680   13.6980 C.3    55  GLN55       0.1566
      3  C         -5.4950  -15.8590   13.8230 C.2    55  GLN55       0.2260
      4  O         -5.6120  -14.8610   13.0910 O.2    55  GLN55      -0.2867
      5  CB        -4.4810  -17.7920   12.5780 C.3    55  GLN55       0.0367
      6  CG        -4.5630  -17.1960   11.2070 C.3    55  GLN55       0.0905
      7  CD        -3.3870  -16.2830   10.8930 C.2    55  GLN55       0.2608
      8  OE1       -2.2300  -16.6170   11.1580 O.2    55  GLN55      -0.2717
      9  NE2       -3.6790  -15.1210   10.3330 N.am   55  GLN55      -0.0878
     10  N         -4.3110  -11.8250   14.3000 N.pl3  58  PRO58      -0.2287
     11  CA        -4.0680  -10.9860   13.1150 C.3    58  PRO58       0.1743
     12  C         -5.2750  -10.8590   12.1960 C.2    58  PRO58       0.2619
     13  O         -5.5270   -9.7730   11.6550 O.2    58  PRO58      -0.2715
     14  CB        -2.9030  -11.6550   12.4140 C.3    58  PRO58       0.0584
     15  CG        -2.5360  -12.8360   13.2190 C.2    58  PRO58      -0.0065
     16  CD        -3.3200  -12.9000   14.4340 C.2    58  PRO58       0.0761
     17  N         -6.0490  -11.9350   12.0520 N.am   59  ASP59      -0.1957
     18  CA        -7.2760  -11.8900   11.2350 C.3    59  ASP59       0.1840
     19  C         -8.3240  -10.9120   11.7920 C.2    59  ASP59       0.2622
     20  O         -9.3630  -10.6780   11.1560 O.2    59  ASP59      -0.2715
     21  CB        -7.8840  -13.2880   11.0830 C.3    59  ASP59       0.1450
     22  CG        -7.0550  -14.2040   10.2120 C.2    59  ASP59       0.3671
     23  OD1       -6.0580  -13.7630    9.6150 O.co2  59  ASP59      -0.2456
     24  OD2       -7.4230  -15.4100   10.1550 O.co2  59  ASP59      -0.2456
     25  N         -8.0820  -10.3470   12.9700 N.am   60  ASN60      -0.1958
     26  CA        -8.9780   -9.3520   13.5590 C.3    60  ASN60       0.1819
     27  C         -8.2430   -8.0690   13.9590 C.2    60  ASN60       0.2622
     28  O         -8.7770   -7.2290   14.6850 O.2    60  ASN60      -0.2715
     29  CB        -9.7240   -9.9400   14.7680 C.3    60  ASN60       0.1195
     30  CG       -10.8660  -10.8410   14.3570 C.2    60  ASN60       0.2630
     31  OD1      -11.9620  -10.3580   14.1130 O.2    60  ASN60      -0.2716
     32  ND2      -10.6070  -12.1310   14.2520 N.am   60  ASN60      -0.0877
     33  N         -7.0120   -7.9250   13.4890 N.am   61  THR61      -0.1937
     34  CA        -6.1940   -6.7430   13.7830 C.3    61  THR61       0.2028
     35  C         -6.2240   -5.8020   12.5920 C.2    61  THR61       0.2642
     36  O         -6.0650   -6.2300   11.4400 O.2    61  THR61      -0.2714
     37  CB        -4.7530   -7.1570   14.1190 C.3    61  THR61       0.1808
     38  OG1       -4.7620   -7.9820   15.2950 O.3    61  THR61      -0.2208
     39  CG2       -3.8760   -5.9620   14.3720 C.3    61  THR61       0.0379
     40  N         -6.3800   -4.5190   12.8890 N.am   62  GLN62      -0.1976
     41  CA        -6.4330   -3.4910   11.8640 C.3    62  GLN62       0.1601
     42  C         -5.6490   -2.2720   12.2960 C.2    62  GLN62       0.2287
     43  O         -5.3530   -2.0820   13.4710 O.2    62  GLN62      -0.2864
     44  CB        -7.8790   -3.0560   11.6410 C.3    62  GLN62       0.0394
     45  CG        -8.8390   -4.1830   11.2460 C.3    62  GLN62       0.0908
     46  CD       -10.3120   -3.7610   11.3380 C.2    62  GLN62       0.2608
     47  OE1      -10.8690   -3.6180   12.4510 O.2    62  GLN62      -0.2717
     48  NE2      -10.9380   -3.5450   10.1800 N.am   62  GLN62      -0.0878
     49  N         -5.2230    2.0950   10.6980 N.3    64  TRP64      -0.1241
     50  CA        -5.4420    3.0980    9.6560 C.3    64  TRP64       0.1605
     51  C         -4.2290    4.0140    9.5840 C.2    64  TRP64       0.2264
     52  O         -3.6260    4.3630   10.6120 O.2    64  TRP64      -0.2867
     53  CB        -6.6980    3.9460    9.9160 C.3    64  TRP64       0.0550
     54  CG        -7.9640    3.4760    9.2130 C.ar   64  TRP64       0.0003
     55  CD1       -8.5780    4.0590    8.1140 C.ar   64  TRP64       0.0946
     56  CD2       -8.7600    2.3510    9.5490 C.ar   64  TRP64       0.0152
     57  NE1       -9.6810    3.3500    7.7640 N.ar   64  TRP64      -0.2442
     58  CE2       -9.8320    2.3030    8.6340 C.ar   64  TRP64       0.0810
     59  CE3       -8.6790    1.3660   10.5440 C.ar   64  TRP64       0.0012
     60  CZ2      -10.8110    1.2980    8.6770 C.ar   64  TRP64       0.0191
     61  CZ3       -9.6460    0.3850   10.5870 C.ar   64  TRP64       0.0001
     62  CH2      -10.7100    0.3590    9.6580 C.ar   64  TRP64       0.0015
     63  N         -7.9270   -9.0330   -3.8570 N.3    85  PHE85      -0.1227
     64  CA        -8.0930   -9.0480   -2.4040 C.3    85  PHE85       0.1736
     65  C         -8.8240  -10.2840   -1.8930 C.2    85  PHE85       0.2595
     66  O         -8.5180  -10.7940   -0.8170 O.2    85  PHE85      -0.2718
     67  CB        -8.8270   -7.7950   -1.9380 C.3    85  PHE85       0.0547
     68  CG        -8.8100   -7.6010   -0.4610 C.ar   85  PHE85      -0.0202
     69  CD1       -7.6910   -7.0700    0.1690 C.ar   85  PHE85      -0.0042
     70  CD2       -9.9190   -7.9230    0.3140 C.ar   85  PHE85      -0.0042
     71  CE1       -7.6800   -6.8580    1.5540 C.ar   85  PHE85      -0.0003
     72  CE2       -9.9110   -7.7180    1.6940 C.ar   85  PHE85      -0.0003
     73  CZ        -8.7910   -7.1740    2.3120 C.ar   85  PHE85      -0.0000
     74  N         -9.7960  -10.7650   -2.6640 N.am   86  ARG86      -0.1980
     75  CA       -10.6330  -11.8590   -2.2070 C.3    86  ARG86       0.1597
     76  C         -9.9140  -13.2210   -2.0950 C.2    86  ARG86       0.2287
     77  O        -10.3770  -14.1100   -1.3880 O.2    86  ARG86      -0.2864
     78  CB       -11.8880  -11.9390   -3.0710 C.3    86  ARG86       0.0334
     79  CG       -12.8220  -10.7690   -2.8590 C.3    86  ARG86       0.0492
     80  CD       -13.4250  -10.5810   -1.4700 C.3    86  ARG86       0.2205
     81  NE       -14.2680  -11.7550   -1.1440 N.pl3  86  ARG86      -0.0865
     82  CZ       -14.6190  -12.0330    0.1150 C.cat  86  ARG86       0.5346
     83  NH1      -14.2820  -11.3250    1.1820 N.pl3  86  ARG86       0.1354
     84  NH2      -15.3570  -13.1480    0.3110 N.pl3  86  ARG86       0.1354
     85  N         -7.4270  -14.9680   -0.2070 N.3    88  ALA88      -0.1245
     86  CA        -6.7850  -14.7900    1.0940 C.3    88  ALA88       0.1562
     87  C         -5.5310  -15.6390    1.2800 C.2    88  ALA88       0.2260
     88  O         -4.9610  -15.6570    2.3580 O.2    88  ALA88      -0.2867
     89  CB        -7.7830  -15.0820    2.2020 C.3    88  ALA88       0.0290
     90  N         -7.0220   -3.9790   -1.8460 N.3    94  THR94      -0.1218
     91  CA        -8.2050   -3.5690   -2.5790 C.3    94  THR94       0.1862
     92  C         -7.8180   -2.4310   -3.5070 C.2    94  THR94       0.2287
     93  O         -6.7030   -1.9280   -3.4570 O.2    94  THR94      -0.2866
     94  CB        -9.3330   -3.0540   -1.6450 C.3    94  THR94       0.1770
     95  OG1       -8.9730   -1.7690   -1.1130 O.3    94  THR94      -0.2211
     96  CG2       -9.5820   -4.0070   -0.5140 C.3    94  THR94       0.0375
     97  N        -15.0620    5.9910    0.2280 N.3    99  GLN99      -0.1231
     98  CA       -15.9380    5.7130    1.3620 C.3    99  GLN99       0.1683
     99  C        -16.5430    7.0120    1.9100 C.2    99  GLN99       0.2434
    100  O        -16.0300    8.0940    1.6500 O.2    99  GLN99      -0.2733
    101  CB       -15.1340    5.0160    2.4620 C.3    99  GLN99       0.0380
    102  CG       -14.5470    3.6700    2.0410 C.3    99  GLN99       0.0905
    103  CD       -15.5620    2.5460    2.0340 C.2    99  GLN99       0.2608
    104  OE1      -15.1930    1.3640    2.0060 O.2    99  GLN99      -0.2717
    105  NE2      -16.8430    2.8960    2.0790 N.am   99  GLN99      -0.0878
    106  N        -17.6540    6.9090    2.6730 N.am  100  PRO100     -0.2718
    107  CA       -18.2730    8.1190    3.2320 C.3   100  PRO100      0.1535
    108  C        -17.3260    9.0160    4.0360 C.2   100  PRO100      0.2598
    109  O        -17.4610   10.2460    4.0190 O.2   100  PRO100     -0.2715
    110  CB       -19.3800    7.5550    4.1240 C.3   100  PRO100      0.0310
    111  CG       -19.7300    6.2570    3.5180 C.3   100  PRO100      0.0237
    112  CD       -18.4200    5.6980    3.0070 C.3   100  PRO100      0.0939
    113  N        -16.3600    8.4080    4.7090 N.am  101  TRP101     -0.1974
    114  CA       -15.4050    9.1410    5.5510 C.3   101  TRP101      0.1640
    115  C        -14.1040    9.4950    4.8300 C.2   101  TRP101      0.2290
    116  O        -13.2700   10.2120    5.3770 O.2   101  TRP101     -0.2864
    117  CB       -15.0550    8.3100    6.7740 C.3   101  TRP101      0.0576
    118  CG       -14.3930    7.0580    6.3960 C.ar  101  TRP101      0.0006
    119  CD1      -13.0630    6.8750    6.1310 C.ar  101  TRP101      0.0946
    120  CD2      -15.0220    5.8050    6.1790 C.ar  101  TRP101      0.0152
    121  NE1      -12.8280    5.5720    5.7870 N.ar  101  TRP101     -0.2442
    122  CE2      -14.0140    4.8910    5.8070 C.ar  101  TRP101      0.0810
    123  CE3      -16.3400    5.3550    6.2680 C.ar  101  TRP101      0.0012
    124  CZ2      -14.2820    3.5640    5.5500 C.ar  101  TRP101      0.0191
    125  CZ3      -16.6000    4.0410    5.9970 C.ar  101  TRP101      0.0001
    126  CH2      -15.5850    3.1640    5.6320 C.ar  101  TRP101      0.0015
    127  N         -9.8080    5.6110    0.2900 N.3   104  GLU104     -0.1245
    128  CA        -8.8650    4.6870    0.8890 C.3   104  GLU104      0.1567
    129  C         -8.7610    3.3480    0.1810 C.2   104  GLU104      0.2260
    130  O         -9.6860    2.9300   -0.5190 O.2   104  GLU104     -0.2867
    131  CB        -9.2450    4.4460    2.3380 C.3   104  GLU104      0.0388
    132  CG       -10.5620    3.7830    2.5820 C.3   104  GLU104      0.1160
    133  CD       -10.5750    3.1320    3.9660 C.2   104  GLU104      0.3649
    134  OE1      -10.6450    3.8620    4.9820 O.co2 104  GLU104     -0.2457
    135  OE2      -10.4800    1.8980    4.0170 O.co2 104  GLU104     -0.2457
    136  N         -7.3370   -0.7800    1.2100 N.3   106  ALA106     -0.1245
    137  CA        -6.9430   -1.6560    2.3120 C.3   106  ALA106      0.1562
    138  C         -5.9190   -2.6680    1.8300 C.2   106  ALA106      0.2260
    139  O         -6.0100   -3.1860    0.7070 O.2   106  ALA106     -0.2867
    140  CB        -8.1450   -2.3580    2.8780 C.3   106  ALA106      0.0290
    141  N         -4.0170   -6.2330    3.0800 N.3   108  ARG108     -0.1245
    142  CA        -3.8890   -7.3430    4.0210 C.3   108  ARG108      0.1563
    143  C         -2.4920   -7.9100    3.9180 C.2   108  ARG108      0.2260
    144  O         -2.0680   -8.2800    2.8210 O.2   108  ARG108     -0.2867
    145  CB        -4.8980   -8.4380    3.6830 C.3   108  ARG108      0.0307
    146  CG        -4.8970   -9.6370    4.6270 C.3   108  ARG108      0.0489
    147  CD        -5.8400  -10.7590    4.1570 C.3   108  ARG108      0.2205
    148  NE        -5.4300  -11.2190    2.8250 N.pl3 108  ARG108     -0.0865
    149  CZ        -6.1030  -11.0610    1.6960 C.cat 108  ARG108      0.5346
    150  NH1       -7.3080  -10.5070    1.6770 N.pl3 108  ARG108      0.1354
    151  NH2       -5.5540  -11.4630    0.5510 N.pl3 108  ARG108      0.1354
    152  N         -2.1650  -11.4430    8.0540 N.3   112  GLY112     -0.1225
    153  CA        -3.6020  -11.2470    8.0100 C.3   112  GLY112      0.1811
    154  C         -4.0980   -9.9170    8.5410 C.2   112  GLY112      0.2280
    155  O         -5.2960   -9.6680    8.5370 O.2   112  GLY112     -0.2866
    156  N         -5.1930   -6.1180    8.5320 N.3   114  CYS114     -0.1235
    157  CA        -5.7940   -5.2790    7.5200 C.3   114  CYS114      0.1677
    158  C         -5.4810   -3.8330    7.8220 C.2   114  CYS114      0.2270
    159  O         -5.9600   -3.3030    8.8400 O.2   114  CYS114     -0.2867
    160  CB        -7.3020   -5.4950    7.5400 C.3   114  CYS114      0.0956
    161  SG        -8.1830   -4.8440    6.1320 S.3   114  CYS114     -0.0801
    162  N         -5.5480    0.0150    6.5140 N.3   116  HIS116     -0.1241
    163  CA        -6.2360    0.9190    5.5860 C.3   116  HIS116      0.1621
    164  C         -5.3830    2.1580    5.3970 C.2   116  HIS116      0.2264
    165  O         -4.8900    2.7090    6.3660 O.2   116  HIS116     -0.2867
    166  CB        -7.5870    1.2980    6.1950 C.3   116  HIS116      0.0745
    167  CG        -8.5170    0.1360    6.3840 C.ar  116  HIS116      0.0817
    168  ND1       -9.7280    0.0450    5.7310 N.ar  116  HIS116     -0.2268
    169  CD2       -8.4280   -0.9650    7.1620 C.ar  116  HIS116      0.1154
    170  CE1      -10.3360   -1.0730    6.0860 C.ar  116  HIS116      0.1986
    171  NE2       -9.5730   -1.7030    6.9540 N.ar  116  HIS116     -0.2212
@<TRIPOS>BOND
     1    63    64    1
     2    92    93    2
     3    92    91    1
     4    78    79    1
     5    78    75    1
     6    79    80    1
     7    74    75    1
     8    74    65   am
     9    91    90    1
    10    91    94    1
    11    64    67    1
    12    64    65    1
    13    75    76    1
    14    76    77    2
    15    67    68    1
    16    65    66    2
    17    94    95    1
    18    94    96    1
    19    80    81    1
    20    81    82    2
    21   130   129    2
    22    68    69   ar
    23    68    70   ar
    24    85    86    1
    25    82    84    1
    26    82    83    1
    27    69    71   ar
    28   129   128    1
    29    97    98    1
    30   127   128    1
    31    70    72   ar
    32   151   149    1
    33   139   138    2
    34   128   131    1
    35    86    87    1
    36    86    89    1
    37   136   137    1
    38    87    88    2
    39    98    99    1
    40    98   101    1
    41    71    73   ar
    42   100    99    2
    43   150   149    1
    44    72    73   ar
    45   149   148    2
    46   138   137    1
    47    99   106   am
    48   104   103    2
    49   103   102    1
    50   103   105   am
    51   102   101    1
    52   137   140    1
    53   131   132    1
    54   132   133    1
    55   106   112    1
    56   106   107    1
    57   144   143    2
    58   148   147    1
    59   112   111    1
    60   141   142    1
    61   107   108    1
    62   107   110    1
    63   111   110    1
    64   145   142    1
    65   145   146    1
    66   143   142    1
    67   133   135   ar
    68   133   134   ar
    69   109   108    2
    70   108   113   am
    71   147   146    1
    72   113   114    1
    73   115   116    2
    74   115   114    1
    75   164   163    1
    76   164   165    2
    77   124   126   ar
    78   124   122   ar
    79   114   117    1
    80   163   166    1
    81   163   162    1
    82   126   125   ar
    83   168   170   ar
    84   168   167   ar
    85   121   122   ar
    86   121   119   ar
    87   122   120   ar
    88   125   123   ar
    89   170   171   ar
    90   119   118   ar
    91   161   160    1
    92   120   123   ar
    93   120   118   ar
    94   166   167    1
    95   167   169   ar
    96   118   117    1
    97   171   169   ar
    98   157   160    1
    99   157   158    1
   100   157   156    1
   101    57    55   ar
   102    57    58   ar
   103   158   159    2
   104   153   152    1
   105   153   154    1
   106    55    54   ar
   107   155   154    2
   108    58    60   ar
   109    58    56   ar
   110    60    62   ar
   111    54    56   ar
   112    54    53    1
   113    56    59   ar
   114    51    50    1
   115    51    52    2
   116    23    22   ar
   117    50    53    1
   118    50    49    1
   119    62    61   ar
   120    24    22   ar
   121    48    46   am
   122    22    21    1
   123     9     7   am
   124    59    61   ar
   125     7     8    2
   126     7     6    1
   127    21    18    1
   128    20    19    2
   129     6     5    1
   130    18    19    1
   131    18    17    1
   132    45    46    1
   133    45    44    1
   134    46    47    2
   135    36    35    2
   136    44    41    1
   137    13    12    2
   138    19    25   am
   139    41    42    1
   140    41    40    1
   141    17    12   am
   142    12    11    1
   143    42    43    2
   144    14    11    1
   145    14    15    1
   146     5     2    1
   147    35    40   am
   148    35    34    1
   149    25    26    1
   150     4     3    2
   151    11    10    1
   152    15    16    2
   153    33    34    1
   154    33    27   am
   155    26    27    1
   156    26    29    1
   157     2     3    1
   158     2     1    1
   159    34    37    1
   160    27    28    2
   161    31    30    2
   162    37    39    1
   163    37    38    1
   164    32    30   am
   165    10    16    1
   166    30    29    1
