@<TRIPOS>MOLECULE
tmp/1xrpA00.pdb
 134 130 0 0 0
SMALL
GASTEIGER

@<TRIPOS>ATOM
      1  N         14.4420    5.4820   17.1790 N.3    37  MET37      -0.1245
      2  CA        13.0240    5.4520   17.5240 C.3    37  MET37       0.1570
      3  C         12.7170    4.2360   18.4180 C.2    37  MET37       0.2261
      4  O         13.3810    4.0250   19.4270 O.2    37  MET37      -0.2867
      5  CB        12.1620    5.4200   16.2540 C.3    37  MET37       0.0387
      6  CG        12.2850    6.6690   15.4020 C.3    37  MET37       0.0595
      7  SD        11.2900    6.6690   13.9140 S.3    37  MET37      -0.1393
      8  CE         9.8930    7.6590   14.4320 C.3    37  MET37       0.0692
      9  N         10.1120   24.9120   13.5470 N.3   168  GLN168     -0.1245
     10  CA         9.2520   23.8310   14.0200 C.3   168  GLN168      0.1566
     11  C          7.9970   23.7430   13.1480 C.2   168  GLN168      0.2260
     12  O          7.5960   22.6570   12.7100 O.2   168  GLN168     -0.2867
     13  CB         8.8360   24.0890   15.4710 C.3   168  GLN168      0.0367
     14  CG         9.9760   24.0310   16.4790 C.3   168  GLN168      0.0905
     15  CD        10.3020   22.6160   16.9120 C.2   168  GLN168      0.2608
     16  OE1       10.6730   21.7760   16.0930 O.2   168  GLN168     -0.2717
     17  NE2       10.1590   22.3430   18.2060 N.am  168  GLN168     -0.0878
     18  N          8.7880   22.1010   10.0450 N.3   171  VAL171     -0.1231
     19  CA         8.9850   20.6730   10.2760 C.3   171  VAL171      0.1692
     20  C          7.6430   19.9480   10.3590 C.2   171  VAL171      0.2592
     21  O          7.4820   18.8350    9.8460 O.2   171  VAL171     -0.2718
     22  CB         9.7590   20.4200   11.5790 C.3   171  VAL171      0.0266
     23  CG1        9.8320   18.9310   11.8650 C.3   171  VAL171      0.0020
     24  CG2       11.1610   20.9990   11.4720 C.3   171  VAL171      0.0020
     25  N          6.6750   20.5900   11.0010 N.am  172  ASN172     -0.1974
     26  CA         5.3540   19.9990   11.1430 C.3   172  ASN172      0.1688
     27  C          4.6710   19.8250    9.7880 C.2   172  ASN172      0.2292
     28  O          4.1060   18.7640    9.4960 O.2   172  ASN172     -0.2864
     29  CB         4.4840   20.8670   12.0610 C.3   172  ASN172      0.1181
     30  CG         3.1330   20.2310   12.3590 C.2   172  ASN172      0.2629
     31  OD1        2.0690   20.7500   11.9700 O.2   172  ASN172     -0.2716
     32  ND2        3.1680   19.0970   13.0520 N.am  172  ASN172     -0.0877
     33  N          6.3150   17.0180    7.8500 N.3   175  TYR175     -0.1227
     34  CA         5.8770   15.7540    8.4380 C.3   175  TYR175      0.1736
     35  C          4.4680   15.3420    8.0000 C.2   175  TYR175      0.2595
     36  O          4.2530   14.2260    7.5140 O.2   175  TYR175     -0.2718
     37  CB         5.9370   15.8410    9.9670 C.3   175  TYR175      0.0548
     38  CG         7.3200   15.6070   10.5380 C.ar  175  TYR175     -0.0200
     39  CD1        8.4650   15.7780    9.7510 C.ar  175  TYR175     -0.0009
     40  CD2        7.4880   15.2310   11.8660 C.ar  175  TYR175     -0.0009
     41  CE1        9.7370   15.5790   10.2750 C.ar  175  TYR175      0.0417
     42  CE2        8.7620   15.0280   12.4000 C.ar  175  TYR175      0.0417
     43  CZ         9.8750   15.2050   11.5940 C.ar  175  TYR175      0.1957
     44  OH        11.1260   14.9970   12.1050 O.3   175  TYR175     -0.2866
     45  N          3.5050   16.2370    8.1790 N.am  176  HIS176     -0.1975
     46  CA         2.1300   15.9380    7.7860 C.3   176  HIS176      0.1656
     47  C          2.0160   15.7930    6.2680 C.2   176  HIS176      0.2291
     48  O          0.9510   15.5440    5.7340 O.2   176  HIS176     -0.2864
     49  CB         1.2070   17.0550    8.2720 C.3   176  HIS176      0.0771
     50  CG         0.9180   17.0000    9.7400 C.ar  176  HIS176      0.0820
     51  ND1       -0.2260   16.4270   10.2530 N.ar  176  HIS176     -0.2267
     52  CD2        1.6470   17.4070   10.8110 C.ar  176  HIS176      0.1154
     53  CE1       -0.1930   16.4800   11.5720 C.ar  176  HIS176      0.1986
     54  NE2        0.9350   17.0700   11.9340 N.ar  176  HIS176     -0.2212
     55  N         -2.7750   11.1430   14.7560 N.3   185  TRP185     -0.1241
     56  CA        -1.5830   10.3030   14.8070 C.3   185  TRP185      0.1605
     57  C         -1.7420    9.3230   15.9690 C.2   185  TRP185      0.2264
     58  O         -1.8420    9.7240   17.1230 O.2   185  TRP185     -0.2867
     59  CB        -0.3300   11.1650   15.0190 C.3   185  TRP185      0.0550
     60  CG         0.1530   11.8820   13.7930 C.ar  185  TRP185      0.0003
     61  CD1       -0.5810   12.2170   12.6900 C.ar  185  TRP185      0.0946
     62  CD2        1.4780   12.3800   13.5580 C.ar  185  TRP185      0.0152
     63  NE1        0.2050   12.8920   11.7850 N.ar  185  TRP185     -0.2442
     64  CE2        1.4730   13.0070   12.2940 C.ar  185  TRP185      0.0810
     65  CE3        2.6700   12.3600   14.2960 C.ar  185  TRP185      0.0012
     66  CZ2        2.6150   13.6080   11.7480 C.ar  185  TRP185      0.0191
     67  CZ3        3.8040   12.9560   13.7560 C.ar  185  TRP185      0.0001
     68  CH2        3.7680   13.5720   12.4930 C.ar  185  TRP185      0.0015
     69  N          3.3550    8.4460   18.2020 N.3   190  LEU190     -0.1245
     70  CA         3.7950    9.4930   19.1190 C.3   190  LEU190      0.1561
     71  C          4.8300    8.9600   20.1120 C.2   190  LEU190      0.2260
     72  O          5.8080    9.6310   20.4300 O.2   190  LEU190     -0.2867
     73  CB         2.5980   10.0730   19.8910 C.3   190  LEU190      0.0270
     74  CG         1.5400   10.8530   19.0950 C.3   190  LEU190      0.0019
     75  CD1        0.4900   11.4190   20.0570 C.3   190  LEU190      0.0001
     76  CD2        2.2020   11.9890   18.3160 C.3   190  LEU190      0.0001
     77  N          8.1730    8.6530   18.4120 N.3   193  LEU193     -0.1245
     78  CA         8.7540    9.9760   18.2100 C.3   193  LEU193      0.1561
     79  C          9.2880   10.5210   19.5440 C.2   193  LEU193      0.2260
     80  O         10.3540   11.1460   19.6030 O.2   193  LEU193     -0.2867
     81  CB         7.7030   10.9320   17.6390 C.3   193  LEU193      0.0270
     82  CG         7.1980   10.5390   16.2440 C.3   193  LEU193      0.0019
     83  CD1        6.1020   11.4900   15.8090 C.3   193  LEU193      0.0001
     84  CD2        8.3500   10.5590   15.2500 C.3   193  LEU193      0.0001
     85  N         12.5080    8.8940   20.4860 N.3   196  ALA196     -0.1231
     86  CA        13.6410    9.3910   19.7390 C.3   196  ALA196      0.1694
     87  C         14.2080   10.6410   20.3810 C.2   196  ALA196      0.2591
     88  O         15.4090   10.7280   20.6070 O.2   196  ALA196     -0.2718
     89  CB        13.2230    9.6840   18.3200 C.3   196  ALA196      0.0304
     90  N         13.3300   11.5970   20.6740 N.am  197  GLU197     -0.1979
     91  CA        13.7230   12.8720   21.2750 C.3   197  GLU197      0.1602
     92  C         14.3060   12.7170   22.6710 C.2   197  GLU197      0.2287
     93  O         14.9190   13.6470   23.1900 O.2   197  GLU197     -0.2864
     94  CB        12.5240   13.8250   21.3260 C.3   197  GLU197      0.0415
     95  CG        11.7620   13.9080   20.0170 C.3   197  GLU197      0.1163
     96  CD        10.5560   14.8370   20.0900 C.2   197  GLU197      0.3649
     97  OE1        9.5170   14.5190   19.4710 O.co2 197  GLU197     -0.2457
     98  OE2       10.6480   15.8940   20.7500 O.co2 197  GLU197     -0.2457
     99  N         19.2110    8.7870   18.2390 N.3   202  TYR202     -0.1241
    100  CA        18.7030    9.6270   17.1540 C.3   202  TYR202      0.1605
    101  C         19.5640   10.8570   16.9050 C.2   202  TYR202      0.2264
    102  O         19.8890   11.1900   15.7680 O.2   202  TYR202     -0.2867
    103  CB        17.2650   10.0650   17.4430 C.3   202  TYR202      0.0534
    104  CG        16.5440   10.6100   16.2250 C.ar  202  TYR202     -0.0201
    105  CD1       15.8740    9.7530   15.3490 C.ar  202  TYR202     -0.0009
    106  CD2       16.5480   11.9780   15.9370 C.ar  202  TYR202     -0.0009
    107  CE1       15.2280   10.2410   14.2200 C.ar  202  TYR202      0.0417
    108  CE2       15.9040   12.4790   14.8050 C.ar  202  TYR202      0.0417
    109  CZ        15.2460   11.6040   13.9500 C.ar  202  TYR202      0.1957
    110  OH        14.6190   12.0790   12.8160 O.3   202  TYR202     -0.2866
    111  N         19.2480   16.1390   13.7370 N.3   208  PRO208     -0.2102
    112  CA        18.1790   16.9670   14.3110 C.3   208  PRO208      0.1504
    113  C         16.7750   16.3960   14.1150 C.2   208  PRO208      0.2576
    114  O         16.0290   16.2260   15.0730 O.2   208  PRO208     -0.2718
    115  CB        18.3610   18.2980   13.5940 C.3   208  PRO208      0.0282
    116  CG        19.8480   18.3400   13.3500 C.3   208  PRO208      0.0208
    117  CD        20.1050   16.9410   12.8460 C.3   208  PRO208      0.0893
    118  N         16.4120   16.1130   12.8670 N.am  209  ASN209     -0.1961
    119  CA        15.0970   15.5670   12.5770 C.3   209  ASN209      0.1819
    120  C         15.0880   14.6570   11.3450 C.2   209  ASN209      0.2621
    121  O         16.1390   14.3310   10.7880 O.2   209  ASN209     -0.2715
    122  CB        14.0930   16.7090   12.3940 C.3   209  ASN209      0.1195
    123  CG        14.5190   17.6990   11.3180 C.2   209  ASN209      0.2630
    124  OD1       14.6250   17.3580   10.1330 O.2   209  ASN209     -0.2716
    125  ND2       14.7670   18.9360   11.7310 N.am  209  ASN209     -0.0877
    126  N         13.8890   14.2620   10.9260 N.am  210  GLN210     -0.1977
    127  CA        13.7000   13.3780    9.7800 C.3   210  GLN210      0.1601
    128  C         14.3990   13.7830    8.4820 C.2   210  GLN210      0.2287
    129  O         15.0100   12.9420    7.8150 O.2   210  GLN210     -0.2864
    130  CB        12.2030   13.1960    9.5110 C.3   210  GLN210      0.0394
    131  CG        11.4820   12.4130   10.6020 C.3   210  GLN210      0.0908
    132  CD        11.8890   10.9450   10.6260 C.2   210  GLN210      0.2608
    133  OE1       11.2870   10.1050    9.9610 O.2   210  GLN210     -0.2717
    134  NE2       12.9400   10.6430   11.3780 N.am  210  GLN210     -0.0878
@<TRIPOS>BOND
     1    48    47    2
     2    47    46    1
     3    36    35    2
     4    46    45    1
     5    46    49    1
     6   129   128    2
     7    33    34    1
     8    35    45   am
     9    35    34    1
    10    49    50    1
    11    34    37    1
    12   128   127    1
    13    28    27    2
    14   130   127    1
    15   130   131    1
    16    50    51   ar
    17    50    52   ar
    18    39    41   ar
    19    39    38   ar
    20   127   126    1
    21    27    26    1
    22    21    20    2
    23   133   132    2
    24    37    38    1
    25    18    19    1
    26   124   123    2
    27    51    53   ar
    28    41    43   ar
    29    19    20    1
    30    19    22    1
    31    20    25   am
    32    38    40   ar
    33   131   132    1
    34   132   134   am
    35   121   120    2
    36    52    54   ar
    37   126   120   am
    38    25    26    1
    39    26    29    1
    40   123   125   am
    41   123   122    1
    42   120   119    1
    43    24    22    1
    44    53    54   ar
    45    22    23    1
    46    43    44    1
    47    43    42   ar
    48    66    64   ar
    49    66    68   ar
    50    63    64   ar
    51    63    61   ar
    52    40    42   ar
    53    31    30    2
    54    29    30    1
    55    64    62   ar
    56    30    32   am
    57   122   119    1
    58    68    67   ar
    59   119   118    1
    60    61    60   ar
    61    12    11    2
    62   110   109    1
    63   117   116    1
    64   117   111    1
    65   118   113   am
    66    11    10    1
    67   116   115    1
    68     9    10    1
    69    62    60   ar
    70    62    65   ar
    71   115   112    1
    72   111   112    1
    73    67    65   ar
    74    60    59    1
    75     7     8    1
    76     7     6    1
    77   109   107   ar
    78   109   108   ar
    79    10    13    1
    80   113   112    1
    81   113   114    2
    82   107   105   ar
    83    55    56    1
    84   108   106   ar
    85    56    59    1
    86    56    57    1
    87    84    82    1
    88   105   104   ar
    89     6     5    1
    90    13    14    1
    91   102   101    2
    92    83    82    1
    93   106   104   ar
    94    57    58    2
    95    16    15    2
    96   104   103    1
    97    82    81    1
    98     5     2    1
    99    14    15    1
   100   101   100    1
   101    15    17   am
   102   100   103    1
   103   100    99    1
   104     1     2    1
   105     2     3    1
   106    81    78    1
   107    69    70    1
   108    78    77    1
   109    78    79    1
   110    76    74    1
   111    89    86    1
   112     3     4    2
   113    74    73    1
   114    74    75    1
   115    70    73    1
   116    70    71    1
   117    97    96   ar
   118    79    80    2
   119    86    87    1
   120    86    85    1
   121    95    96    1
   122    95    94    1
   123    96    98   ar
   124    71    72    2
   125    87    88    2
   126    87    90   am
   127    90    91    1
   128    91    94    1
   129    91    92    1
   130    92    93    2
