@<TRIPOS>MOLECULE
tmp/1xrpA01.pdb
 128 119 0 0 0
SMALL
GASTEIGER

@<TRIPOS>ATOM
      1  N         14.4840    5.3850   12.5510 N.3    34  GLY34      -0.1210
      2  CA        15.1290    6.4190   13.3390 C.3    34  GLY34       0.1940
      3  C         16.3270    6.9710   12.5790 C.2    34  GLY34       0.2453
      4  O         16.1650    7.7820   11.6790 O.2    34  GLY34      -0.2732
      5  N         17.5550    6.5520   12.9060 N.am   35  PRO35      -0.2728
      6  CA        17.8180    5.5750   13.9620 C.3    35  PRO35       0.1401
      7  C         17.5010    6.2260   15.2960 C.2    35  PRO35       0.2269
      8  O         17.6490    7.4330   15.4310 O.2    35  PRO35      -0.2865
      9  CB        19.3200    5.3080   13.8280 C.3    35  PRO35       0.0296
     10  CG        19.6570    5.7820   12.4180 C.3    35  PRO35       0.0237
     11  CD        18.7970    6.9650   12.2300 C.3    35  PRO35       0.0939
     12  N         12.1050    2.5850    7.1470 N.3   102  SER102     -0.1202
     13  CA        12.9560    3.7670    7.1310 C.3   102  SER102      0.2020
     14  C         14.3890    3.3170    7.3870 C.2   102  SER102      0.2618
     15  O         14.9470    2.5480    6.6130 O.2   102  SER102     -0.2717
     16  CB        12.4820    4.7510    8.2100 C.3   102  SER102      0.2103
     17  OG        12.9140    6.0680    7.9190 O.3   102  SER102     -0.2182
     18  N         14.9890    3.7960    8.4690 N.am  103  TYR103     -0.1975
     19  CA        16.3470    3.3860    8.8120 C.3   103  TYR103      0.1639
     20  C         16.3680    1.8730    8.9770 C.2   103  TYR103      0.2290
     21  O         17.3420    1.2220    8.6140 O.2   103  TYR103     -0.2864
     22  CB        16.7960    4.0540   10.1150 C.3   103  TYR103      0.0560
     23  CG        17.9840    3.3710   10.7570 C.ar  103  TYR103     -0.0198
     24  CD1       17.8350    2.6300   11.9300 C.ar  103  TYR103     -0.0009
     25  CD2       19.2540    3.4540   10.1910 C.ar  103  TYR103     -0.0009
     26  CE1       18.9230    1.9880   12.5220 C.ar  103  TYR103      0.0417
     27  CE2       20.3480    2.8130   10.7810 C.ar  103  TYR103      0.0417
     28  CZ        20.1790    2.0840   11.9410 C.ar  103  TYR103      0.1957
     29  OH        21.2590    1.4420   12.5160 O.3   103  TYR103     -0.2866
     30  N         16.1470    2.5880    2.5470 N.3   128  LEU128     -0.1245
     31  CA        17.1480    3.2280    1.6970 C.3   128  LEU128      0.1561
     32  C         18.4850    2.4830    1.7230 C.2   128  LEU128      0.2260
     33  O         18.8490    1.8590    2.7190 O.2   128  LEU128     -0.2867
     34  CB        17.3800    4.6590    2.1590 C.3   128  LEU128      0.0270
     35  CG        17.7190    4.8270    3.6430 C.3   128  LEU128      0.0019
     36  CD1       18.9620    5.6870    3.8110 C.3   128  LEU128      0.0001
     37  CD2       16.5470    5.4660    4.3680 C.3   128  LEU128      0.0001
     38  N         22.0580    7.0200    2.1500 N.3   131  VAL131     -0.1245
     39  CA        21.6140    8.1690    2.9170 C.3   131  VAL131      0.1561
     40  C         21.7980    9.4230    2.0550 C.2   131  VAL131      0.2260
     41  O         20.8930   10.2650    1.9520 O.2   131  VAL131     -0.2867
     42  CB        22.4360    8.3190    4.2300 C.3   131  VAL131      0.0252
     43  CG1       22.0340    9.5800    4.9830 C.3   131  VAL131      0.0019
     44  CG2       22.2080    7.1160    5.1080 C.3   131  VAL131      0.0019
     45  N         19.0950    9.8670   -0.1200 N.3   134  THR134     -0.1218
     46  CA        17.9170   10.1700    0.6810 C.3   134  THR134      0.1862
     47  C         17.9160   11.6450    1.0450 C.2   134  THR134      0.2287
     48  O         16.8630   12.2800    1.0820 O.2   134  THR134     -0.2866
     49  CB        17.9010    9.3440    1.9810 C.3   134  THR134      0.1770
     50  OG1       17.9280    7.9520    1.6550 O.3   134  THR134     -0.2211
     51  CG2       16.6600    9.6640    2.8060 C.3   134  THR134      0.0375
     52  N         15.2430   14.3880   -0.1880 N.3   138  MET138     -0.1245
     53  CA        14.4790   15.1610    0.7910 C.3   138  MET138      0.1570
     54  C         14.6430   16.6730    0.6000 C.2   138  MET138      0.2261
     55  O         13.7020   17.4560    0.8430 O.2   138  MET138     -0.2867
     56  CB        14.8740   14.7790    2.2160 C.3   138  MET138      0.0387
     57  CG        14.4180   13.4020    2.6320 C.3   138  MET138      0.0595
     58  SD        14.5930   13.1200    4.3770 S.3   138  MET138     -0.1393
     59  CE        16.3840   13.0810    4.5250 C.3   138  MET138      0.0692
     60  N         19.2110    8.7870   18.2390 N.3   202  TYR202     -0.1241
     61  CA        18.7030    9.6270   17.1540 C.3   202  TYR202      0.1605
     62  C         19.5640   10.8570   16.9050 C.2   202  TYR202      0.2264
     63  O         19.8890   11.1900   15.7680 O.2   202  TYR202     -0.2867
     64  CB        17.2650   10.0650   17.4430 C.3   202  TYR202      0.0534
     65  CG        16.5440   10.6100   16.2250 C.ar  202  TYR202     -0.0201
     66  CD1       15.8740    9.7530   15.3490 C.ar  202  TYR202     -0.0009
     67  CD2       16.5480   11.9780   15.9370 C.ar  202  TYR202     -0.0009
     68  CE1       15.2280   10.2410   14.2200 C.ar  202  TYR202      0.0417
     69  CE2       15.9040   12.4790   14.8050 C.ar  202  TYR202      0.0417
     70  CZ        15.2460   11.6040   13.9500 C.ar  202  TYR202      0.1957
     71  OH        14.6190   12.0790   12.8160 O.3   202  TYR202     -0.2866
     72  N         21.4260    9.8100   13.5820 N.3   206  ASN206     -0.1240
     73  CA        20.6040   10.4560   12.5640 C.3   206  ASN206      0.1653
     74  C         20.9020   11.9360   12.4410 C.2   206  ASN206      0.2266
     75  O         21.5140   12.3740   11.4800 O.2   206  ASN206     -0.2867
     76  CB        19.1130   10.2970   12.8780 C.3   206  ASN206      0.1155
     77  CG        18.2470   11.1080   11.9400 C.2   206  ASN206      0.2627
     78  OD1       17.9980   10.7110   10.7970 O.2   206  ASN206     -0.2716
     79  ND2       17.8130   12.2720   12.4010 N.am  206  ASN206     -0.0877
     80  N         16.4120   16.1130   12.8670 N.3   209  ASN209     -0.1225
     81  CA        15.0970   15.5670   12.5770 C.3   209  ASN209      0.1785
     82  C         15.0880   14.6570   11.3450 C.2   209  ASN209      0.2597
     83  O         16.1390   14.3310   10.7880 O.2   209  ASN209     -0.2718
     84  CB        14.0930   16.7090   12.3940 C.3   209  ASN209      0.1169
     85  CG        14.5190   17.6990   11.3180 C.2   209  ASN209      0.2627
     86  OD1       14.6250   17.3580   10.1330 O.2   209  ASN209     -0.2716
     87  ND2       14.7670   18.9360   11.7310 N.am  209  ASN209     -0.0877
     88  N         13.8890   14.2620   10.9260 N.am  210  GLN210     -0.1979
     89  CA        13.7000   13.3780    9.7800 C.3   210  GLN210      0.1601
     90  C         14.3990   13.7830    8.4820 C.2   210  GLN210      0.2287
     91  O         15.0100   12.9420    7.8150 O.2   210  GLN210     -0.2864
     92  CB        12.2030   13.1960    9.5110 C.3   210  GLN210      0.0394
     93  CG        11.4820   12.4130   10.6020 C.3   210  GLN210      0.0908
     94  CD        11.8890   10.9450   10.6260 C.2   210  GLN210      0.2608
     95  OE1       11.2870   10.1050    9.9610 O.2   210  GLN210     -0.2717
     96  NE2       12.9400   10.6430   11.3780 N.am  210  GLN210     -0.0878
     97  N         19.7730   14.7760    8.1370 N.3   213  ILE213     -0.1245
     98  CA        20.6580   13.6680    8.4800 C.3   213  ILE213      0.1561
     99  C         22.1160   14.1120    8.5140 C.2   213  ILE213      0.2260
    100  O         22.8490   13.9380    7.5420 O.2   213  ILE213     -0.2867
    101  CB        20.5060   12.5190    7.4650 C.3   213  ILE213      0.0252
    102  CG1       19.0210   12.1820    7.2860 C.3   213  ILE213      0.0019
    103  CG2       21.2360   11.2820    7.9630 C.3   213  ILE213      0.0019
    104  CD1       18.7400   11.2430    6.1290 C.3   213  ILE213      0.0001
    105  N         25.6540    8.4930   10.1870 N.3   217  ILE217     -0.1245
    106  CA        25.3060    7.6650    9.0370 C.3   217  ILE217      0.1561
    107  C         25.1260    8.5250    7.8030 C.2   217  ILE217      0.2260
    108  O         24.5730    8.0630    6.7920 O.2   217  ILE217     -0.2867
    109  CB        23.9970    6.8700    9.2800 C.3   217  ILE217      0.0252
    110  CG1       22.8000    7.8300    9.2810 C.3   217  ILE217      0.0019
    111  CG2       24.0790    6.1190   10.6260 C.3   217  ILE217      0.0019
    112  CD1       21.4610    7.1910    9.6710 C.3   217  ILE217      0.0001
    113  N          8.6880   10.6440    2.4930 N.3   242  GLU242     -0.1231
    114  CA         9.8610   11.4980    2.7140 C.3   242  GLU242      0.1699
    115  C         11.0960   10.8200    2.0950 C.2   242  GLU242      0.2592
    116  O         12.0800   11.4820    1.7480 O.2   242  GLU242     -0.2718
    117  CB        10.0900   11.7300    4.2130 C.3   242  GLU242      0.0402
    118  CG        10.5470   10.4910    4.9570 C.3   242  GLU242      0.1161
    119  CD        10.5720   10.6800    6.4560 C.2   242  GLU242      0.3649
    120  OE1       10.1000   11.7250    6.9230 O.co2 242  GLU242     -0.2457
    121  OE2       11.0410    9.7770    7.1810 O.co2 242  GLU242     -0.2457
    122  N         11.0560    9.4940    1.9990 N.am  243  VAL243     -0.1980
    123  CA        12.1200    8.7320    1.3600 C.3   243  VAL243      0.1595
    124  C         11.4580    8.3230    0.0390 C.2   243  VAL243      0.2287
    125  O         11.0480    7.1790   -0.1450 O.2   243  VAL243     -0.2864
    126  CB        12.4820    7.4820    2.1620 C.3   243  VAL243      0.0276
    127  CG1       13.7270    6.8450    1.5790 C.3   243  VAL243      0.0022
    128  CG2       12.7210    7.8490    3.6170 C.3   243  VAL243      0.0022
@<TRIPOS>BOND
     1    52    53    1
     2   125   124    2
     3    45    46    1
     4   124   123    1
     5    54    53    1
     6    54    55    2
     7    46    47    1
     8    46    49    1
     9    53    56    1
    10    47    48    2
    11   123   122    1
    12   123   126    1
    13   127   126    1
    14    50    49    1
    15    31    32    1
    16    31    34    1
    17    31    30    1
    18    32    33    2
    19   116   115    2
    20    41    40    2
    21    49    51    1
    22   122   115   am
    23    40    39    1
    24   115   114    1
    25    38    39    1
    26    34    35    1
    27   126   128    1
    28    56    57    1
    29   113   114    1
    30    57    58    1
    31   114   117    1
    32    39    42    1
    33    35    36    1
    34    35    37    1
    35   117   118    1
    36    42    43    1
    37    42    44    1
    38    58    59    1
    39   118   119    1
    40   104   102    1
    41   119   120   ar
    42   119   121   ar
    43    15    14    2
    44   108   107    2
    45    13    12    1
    46    13    14    1
    47    13    16    1
    48   102   101    1
    49    14    18   am
    50   101   103    1
    51   101    98    1
    52   100    99    2
    53   107   106    1
    54    91    90    2
    55    17    16    1
    56    97    98    1
    57    18    19    1
    58    98    99    1
    59    90    89    1
    60    21    20    2
    61    19    20    1
    62    19    22    1
    63   106   109    1
    64   106   105    1
    65   109   110    1
    66   109   111    1
    67   110   112    1
    68    92    89    1
    69    92    93    1
    70    89    88    1
    71    95    94    2
    72    22    23    1
    73    86    85    2
    74    25    23   ar
    75    25    27   ar
    76    93    94    1
    77    94    96   am
    78    23    24   ar
    79    27    28   ar
    80    83    82    2
    81    78    77    2
    82    88    82   am
    83    85    87   am
    84    85    84    1
    85    82    81    1
    86    75    74    2
    87     4     3    2
    88    24    26   ar
    89    77    79   am
    90    77    76    1
    91    28    29    1
    92    28    26   ar
    93    11    10    1
    94    11     5    1
    95    84    81    1
    96    10     9    1
    97    74    73    1
    98     1     2    1
    99    73    76    1
   100    73    72    1
   101    81    80    1
   102     3     5   am
   103     3     2    1
   104    71    70    1
   105     5     6    1
   106     9     6    1
   107    70    68   ar
   108    70    69   ar
   109     6     7    1
   110    68    66   ar
   111    69    67   ar
   112     7     8    2
   113    66    65   ar
   114    63    62    2
   115    67    65   ar
   116    65    64    1
   117    62    61    1
   118    61    64    1
   119    61    60    1
