@<TRIPOS>MOLECULE
tmp/1xrrA01.pdb
 94 89 0 0 0
SMALL
GASTEIGER

@<TRIPOS>ATOM
      1  N         15.5650    5.5700   17.0810 N.3    37  MET37      -0.1245
      2  CA        14.1290    5.5540   17.3630 C.3    37  MET37       0.1570
      3  C         13.7430    4.3370   18.2120 C.2    37  MET37       0.2261
      4  O         14.3700    4.0600   19.2330 O.2    37  MET37      -0.2867
      5  CB        13.3320    5.5560   16.0560 C.3    37  MET37       0.0387
      6  CG        13.4300    6.8520   15.2630 C.3    37  MET37       0.0595
      7  SD        12.4930    6.7950   13.7160 S.3    37  MET37      -0.1393
      8  CE        10.9400    7.5860   14.2490 C.3    37  MET37       0.0692
      9  N         10.9660   24.8450   13.2530 N.3   168  GLN168     -0.1245
     10  CA        10.0930   23.7750   13.7270 C.3   168  GLN168      0.1566
     11  C          8.8870   23.6260   12.8160 C.2   168  GLN168      0.2260
     12  O          8.5050   22.5130   12.4540 O.2   168  GLN168     -0.2867
     13  CB         9.6130   24.0660   15.1460 C.3   168  GLN168      0.0367
     14  CG        10.7240   24.1730   16.1680 C.3   168  GLN168      0.0905
     15  CD        11.2110   22.8230   16.6550 C.2   168  GLN168      0.2608
     16  OE1       11.5790   21.9560   15.8590 O.2   168  GLN168     -0.2717
     17  NE2       11.2230   22.6390   17.9710 N.am  168  GLN168     -0.0878
     18  N          9.6660   21.9190    9.7290 N.3   171  VAL171     -0.1245
     19  CA         9.9300   20.5050    9.9760 C.3   171  VAL171      0.1561
     20  C          8.6330   19.6930   10.0640 C.2   171  VAL171      0.2260
     21  O          8.4500   18.6930    9.3550 O.2   171  VAL171     -0.2867
     22  CB        10.7430   20.3250   11.2740 C.3   171  VAL171      0.0252
     23  CG1       11.0120   18.8550   11.5240 C.3   171  VAL171      0.0019
     24  CG2       12.0520   21.0930   11.1740 C.3   171  VAL171      0.0019
     25  N          7.0840   16.7710    7.6620 N.3   175  TYR175     -0.1241
     26  CA         6.6940   15.4610    8.1940 C.3   175  TYR175      0.1605
     27  C          5.2630   15.0750    7.8250 C.2   175  TYR175      0.2264
     28  O          4.9860   13.9450    7.4020 O.2   175  TYR175     -0.2867
     29  CB         6.8660   15.4480    9.7220 C.3   175  TYR175      0.0534
     30  CG         8.3080   15.2840   10.1930 C.ar  175  TYR175     -0.0201
     31  CD1        9.3670   15.3000    9.2840 C.ar  175  TYR175     -0.0009
     32  CD2        8.6100   15.1030   11.5490 C.ar  175  TYR175     -0.0009
     33  CE1       10.6830   15.1400    9.7050 C.ar  175  TYR175      0.0417
     34  CE2        9.9300   14.9420   11.9800 C.ar  175  TYR175      0.0417
     35  CZ        10.9590   14.9650   11.0430 C.ar  175  TYR175      0.1957
     36  OH        12.2650   14.8360   11.4430 O.3   175  TYR175     -0.2866
     37  N          9.4440    8.5850   18.2920 N.3   193  LEU193     -0.1245
     38  CA        10.0020    9.9110   18.0980 C.3   193  LEU193      0.1561
     39  C         10.4660   10.4250   19.4550 C.2   193  LEU193      0.2260
     40  O         11.5300   11.0380   19.5870 O.2   193  LEU193     -0.2867
     41  CB         8.9240   10.8300   17.5260 C.3   193  LEU193      0.0270
     42  CG         8.3620   10.4250   16.1660 C.3   193  LEU193      0.0019
     43  CD1        7.1050   11.2370   15.8690 C.3   193  LEU193      0.0001
     44  CD2        9.4230   10.6300   15.0870 C.3   193  LEU193      0.0001
     45  N         13.7500    8.7740   20.2490 N.3   196  ALA196     -0.1231
     46  CA        14.8530    9.3160   19.4710 C.3   196  ALA196      0.1694
     47  C         15.3750   10.6050   20.0990 C.2   196  ALA196      0.2591
     48  O         16.5680   10.9030   20.0610 O.2   196  ALA196     -0.2718
     49  CB        14.3900    9.5800   18.0470 C.3   196  ALA196      0.0304
     50  N         14.4630   11.3660   20.6860 N.am  197  GLU197     -0.1979
     51  CA        14.8270   12.6240   21.3120 C.3   197  GLU197      0.1602
     52  C         15.3650   12.4230   22.7290 C.2   197  GLU197      0.2287
     53  O         16.1580   13.2280   23.2090 O.2   197  GLU197     -0.2864
     54  CB        13.6080   13.5420   21.3180 C.3   197  GLU197      0.0415
     55  CG        13.8550   14.9390   21.8370 C.3   197  GLU197      0.1163
     56  CD        12.7860   15.9070   21.3700 C.2   197  GLU197      0.3649
     57  OE1       12.6890   17.0180   21.9370 O.co2 197  GLU197     -0.2457
     58  OE2       12.0460   15.5550   20.4230 O.co2 197  GLU197     -0.2457
     59  N         20.1560    8.8710   18.1940 N.3   202  TYR202     -0.1241
     60  CA        19.6340    9.6980   17.1090 C.3   202  TYR202      0.1605
     61  C         20.4600   10.9960   16.9030 C.2   202  TYR202      0.2264
     62  O         20.7140   11.4340   15.7710 O.2   202  TYR202     -0.2867
     63  CB        18.1610   10.0320   17.4130 C.3   202  TYR202      0.0534
     64  CG        17.4180   10.5920   16.2250 C.ar  202  TYR202     -0.0201
     65  CD1       17.1060    9.7830   15.1330 C.ar  202  TYR202     -0.0009
     66  CD2       17.0920   11.9480   16.1540 C.ar  202  TYR202     -0.0009
     67  CE1       16.4970   10.3080   13.9900 C.ar  202  TYR202      0.0417
     68  CE2       16.4790   12.4890   15.0130 C.ar  202  TYR202      0.0417
     69  CZ        16.1890   11.6620   13.9330 C.ar  202  TYR202      0.1957
     70  OH        15.6300   12.2000   12.7890 O.3   202  TYR202     -0.2866
     71  N         20.0910   16.1310   13.6580 N.3   208  PRO208     -0.2102
     72  CA        18.9630   16.9200   14.1700 C.3   208  PRO208      0.1504
     73  C         17.5710   16.3560   13.8500 C.2   208  PRO208      0.2576
     74  O         16.7300   16.2020   14.7370 O.2   208  PRO208     -0.2718
     75  CB        19.1710   18.2870   13.5090 C.3   208  PRO208      0.0282
     76  CG        20.6480   18.3420   13.2670 C.3   208  PRO208      0.0208
     77  CD        20.9220   16.9510   12.7560 C.3   208  PRO208      0.0893
     78  N         17.3360   16.0530   12.5790 N.am  209  ASN209     -0.1961
     79  CA        16.0310   15.5620   12.1500 C.3   209  ASN209      0.1819
     80  C         16.1420   14.6040   10.9780 C.2   209  ASN209      0.2621
     81  O         17.2530   14.1900   10.6220 O.2   209  ASN209     -0.2715
     82  CB        15.1350   16.7500   11.7590 C.3   209  ASN209      0.1195
     83  CG        15.7930   17.6800   10.7290 C.2   209  ASN209      0.2630
     84  OD1       16.0770   17.2810    9.6000 O.2   209  ASN209     -0.2716
     85  ND2       16.0200   18.9330   11.1230 N.am  209  ASN209     -0.0877
     86  N         14.9890   14.2580   10.3930 N.am  210  GLU210     -0.1977
     87  CA        14.9350   13.3530    9.2450 C.3   210  GLU210      0.1602
     88  C         15.6770   13.8650    8.0250 C.2   210  GLU210      0.2287
     89  O         16.3980   13.1090    7.3810 O.2   210  GLU210     -0.2864
     90  CB        13.4820   13.0630    8.8510 C.3   210  GLU210      0.0415
     91  CG        12.7600   12.2060    9.8630 C.3   210  GLU210      0.1163
     92  CD        13.4150   10.8410   10.0480 C.2   210  GLU210      0.3649
     93  OE1       12.7840    9.8130    9.7090 O.co2 210  GLU210     -0.2457
     94  OE2       14.5670   10.7940   10.5290 O.co2 210  GLU210     -0.2457
@<TRIPOS>BOND
     1    89    88    2
     2    28    27    2
     3    25    26    1
     4    27    26    1
     5    88    87    1
     6    26    29    1
     7    90    87    1
     8    90    91    1
     9    87    86    1
    10    31    33   ar
    11    31    30   ar
    12    21    20    2
    13    84    83    2
    14    33    35   ar
    15    93    92   ar
    16    29    30    1
    17    18    19    1
    18    91    92    1
    19    19    20    1
    20    19    22    1
    21    92    94   ar
    22    30    32   ar
    23    86    80   am
    24    81    80    2
    25    83    85   am
    26    83    82    1
    27    80    79    1
    28    35    36    1
    29    35    34   ar
    30    24    22    1
    31    22    23    1
    32    32    34   ar
    33    82    79    1
    34    79    78    1
    35    12    11    2
    36    78    73   am
    37    77    76    1
    38    77    71    1
    39    70    69    1
    40    11    10    1
    41     9    10    1
    42    76    75    1
    43    75    72    1
    44    71    72    1
    45     7     8    1
    46     7     6    1
    47    10    13    1
    48    73    72    1
    49    73    74    2
    50    69    67   ar
    51    69    68   ar
    52    67    65   ar
    53    68    66   ar
    54    44    42    1
    55    65    64   ar
    56    13    14    1
    57     6     5    1
    58    62    61    2
    59    16    15    2
    60    43    42    1
    61     5     2    1
    62    66    64   ar
    63    42    41    1
    64    14    15    1
    65    64    63    1
    66    15    17   am
    67    61    60    1
    68     1     2    1
    69    60    63    1
    70    60    59    1
    71     2     3    1
    72    41    38    1
    73    49    46    1
    74    38    37    1
    75    38    39    1
    76     3     4    2
    77    39    40    2
    78    46    47    1
    79    46    45    1
    80    48    47    2
    81    47    50   am
    82    58    56   ar
    83    50    51    1
    84    51    54    1
    85    51    52    1
    86    54    55    1
    87    56    55    1
    88    56    57   ar
    89    52    53    2
