@<TRIPOS>MOLECULE
tmp/1xrsA01.pdb
 121 114 0 0 0
SMALL
GASTEIGER

@<TRIPOS>ATOM
      1  N         61.0770   49.2500   86.5590 N.3   184  ARG184     -0.1231
      2  CA        62.4870   49.0000   86.3100 C.3   184  ARG184      0.1694
      3  C         62.9730   49.8890   85.1360 C.2   184  ARG184      0.2593
      4  O         62.1680   50.2230   84.2720 O.2   184  ARG184     -0.2718
      5  CB        62.6510   47.4830   86.0570 C.3   184  ARG184      0.0321
      6  CG        63.9870   47.0110   85.5400 C.3   184  ARG184      0.0489
      7  CD        64.3400   45.6760   86.1350 C.3   184  ARG184      0.2205
      8  NE        64.1040   44.4410   85.3680 N.pl3 184  ARG184     -0.0865
      9  CZ        63.8890   44.3460   84.0660 C.cat 184  ARG184      0.5346
     10  NH1       63.8410   45.4340   83.2970 N.pl3 184  ARG184      0.1354
     11  NH2       63.7820   43.1420   83.5290 N.pl3 184  ARG184      0.1354
     12  N         64.2590   50.2970   85.1500 N.am  185  THR185     -0.1939
     13  CA        64.8900   51.1400   84.0990 C.3   185  THR185      0.2028
     14  C         64.5910   50.5310   82.7470 C.2   185  THR185      0.2643
     15  O         64.6870   49.3160   82.5880 O.2   185  THR185     -0.2714
     16  CB        66.4690   51.2080   84.2100 C.3   185  THR185      0.1808
     17  OG1       66.8720   51.6700   85.5070 O.3   185  THR185     -0.2208
     18  CG2       67.0300   52.1570   83.1760 C.3   185  THR185      0.0379
     19  N         64.2490   51.3550   81.7630 N.am  186  THR186     -0.1936
     20  CA        63.9240   50.8090   80.4630 C.3   186  THR186      0.2028
     21  C         65.1240   50.0670   79.8970 C.2   186  THR186      0.2643
     22  O         66.2690   50.5460   79.9480 O.2   186  THR186     -0.2714
     23  CB        63.4580   51.9210   79.4880 C.3   186  THR186      0.1808
     24  OG1       62.8950   51.3260   78.3100 O.3   186  THR186     -0.2208
     25  CG2       64.6210   52.8310   79.0890 C.3   186  THR186      0.0379
     26  N         64.8510   48.8670   79.4000 N.am  187  GLY187     -0.1939
     27  CA        65.8640   48.0380   78.7920 C.3   187  GLY187      0.2014
     28  C         66.7240   47.1840   79.6940 C.2   187  GLY187      0.2639
     29  O         67.5810   46.4650   79.1740 O.2   187  GLY187     -0.2714
     30  N         66.5060   47.1960   81.0100 N.am  188  GLN188     -0.1963
     31  CA        67.3880   46.4240   81.9030 C.3   188  GLN188      0.1733
     32  C         67.4430   44.9260   81.6130 C.2   188  GLN188      0.2617
     33  O         68.4360   44.2450   81.9060 O.2   188  GLN188     -0.2715
     34  CB        67.0090   46.6470   83.3780 C.3   188  GLN188      0.0408
     35  CG        68.0720   46.1570   84.3540 C.3   188  GLN188      0.0908
     36  CD        67.7810   46.5300   85.8050 C.2   188  GLN188      0.2608
     37  OE1       67.2520   47.6070   86.0840 O.2   188  GLN188     -0.2717
     38  NE2       68.1530   45.6540   86.7330 N.am  188  GLN188     -0.0878
     39  N         66.3840   44.3980   81.0260 N.am  189  SER189     -0.1950
     40  CA        66.3770   42.9950   80.7580 C.3   189  SER189      0.1924
     41  C         67.4350   42.6520   79.7050 C.2   189  SER189      0.2314
     42  O         67.7450   41.4750   79.4790 O.2   189  SER189     -0.2863
     43  CB        64.9670   42.5810   80.3550 C.3   189  SER189      0.2116
     44  OG        64.5730   43.2210   79.1730 O.3   189  SER189     -0.2180
     45  N         60.5650   43.5440   88.4430 N.3   236  TYR236     -0.1241
     46  CA        60.5830   42.7780   87.2220 C.3   236  TYR236      0.1605
     47  C         61.6870   41.7460   87.1290 C.2   236  TYR236      0.2264
     48  O         62.8470   42.0620   87.3410 O.2   236  TYR236     -0.2867
     49  CB        60.6700   43.7430   86.0270 C.3   236  TYR236      0.0534
     50  CG        59.5500   44.7780   85.9130 C.ar  236  TYR236     -0.0201
     51  CD1       59.0330   45.1400   84.6790 C.ar  236  TYR236     -0.0009
     52  CD2       59.0090   45.3800   87.0350 C.ar  236  TYR236     -0.0009
     53  CE1       57.9970   46.0710   84.5630 C.ar  236  TYR236      0.0417
     54  CE2       57.9760   46.3090   86.9410 C.ar  236  TYR236      0.0417
     55  CZ        57.4700   46.6480   85.7040 C.ar  236  TYR236      0.1957
     56  OH        56.4080   47.5300   85.6380 O.3   236  TYR236     -0.2866
     57  N         62.0640   39.7950   84.2430 N.3   238  SER238     -0.1217
     58  CA        62.4060   39.7250   82.8290 C.3   238  SER238      0.1889
     59  C         63.8230   40.0680   82.4350 C.2   238  SER238      0.2288
     60  O         64.4270   40.9510   83.0200 O.2   238  SER238     -0.2866
     61  CB        61.4300   40.5820   82.0490 C.3   238  SER238      0.2089
     62  OG        60.1180   40.0900   82.2510 O.3   238  SER238     -0.2183
     63  N         57.2980   40.3310   88.0200 N.3   258  LEU258     -0.1245
     64  CA        56.8990   39.9600   86.6610 C.3   258  LEU258      0.1561
     65  C         57.7660   38.8380   86.1960 C.2   258  LEU258      0.2260
     66  O         58.9830   38.9760   86.1580 O.2   258  LEU258     -0.2867
     67  CB        57.0580   41.0990   85.6660 C.3   258  LEU258      0.0270
     68  CG        56.1470   42.2890   85.8760 C.3   258  LEU258      0.0019
     69  CD1       56.7240   43.0670   87.0260 C.3   258  LEU258      0.0001
     70  CD2       56.0690   43.1480   84.6220 C.3   258  LEU258      0.0001
     71  N         57.2860   36.2780   83.0000 N.3   260  ASP260     -0.1239
     72  CA        56.6490   35.6210   81.8600 C.3   260  ASP260      0.1674
     73  C         57.5860   34.7020   81.0810 C.2   260  ASP260      0.2266
     74  O         58.7210   35.0620   80.7580 O.2   260  ASP260     -0.2867
     75  CB        56.1020   36.6860   80.9050 C.3   260  ASP260      0.1410
     76  CG        55.0770   36.1290   79.9270 C.2   260  ASP260      0.3668
     77  OD1       55.4680   35.5760   78.8600 O.co2 260  ASP260     -0.2456
     78  OD2       53.8690   36.2520   80.2540 O.co2 260  ASP260     -0.2456
     79  N         58.1140   36.3750   77.2770 N.3   263  TYR263     -0.1241
     80  CA        58.3990   37.7870   77.0910 C.3   263  TYR263      0.1605
     81  C         59.7020   38.1010   76.4340 C.2   263  TYR263      0.2264
     82  O         59.7320   38.6980   75.3500 O.2   263  TYR263     -0.2867
     83  CB        58.3910   38.5280   78.4090 C.3   263  TYR263      0.0534
     84  CG        58.8440   39.9710   78.2550 C.ar  263  TYR263     -0.0201
     85  CD1       58.1020   40.8810   77.5080 C.ar  263  TYR263     -0.0009
     86  CD2       59.9860   40.4300   78.9000 C.ar  263  TYR263     -0.0009
     87  CE1       58.4740   42.2030   77.4140 C.ar  263  TYR263      0.0417
     88  CE2       60.3750   41.7520   78.8150 C.ar  263  TYR263      0.0417
     89  CZ        59.6160   42.6330   78.0710 C.ar  263  TYR263      0.1957
     90  OH        60.0180   43.9420   77.9770 O.3   263  TYR263     -0.2866
     91  N         62.2050   41.0680   73.4130 N.3   268  ARG268     -0.1245
     92  CA        63.5640   41.5540   73.6470 C.3   268  ARG268      0.1563
     93  C         64.6030   40.7570   72.8820 C.2   268  ARG268      0.2260
     94  O         65.8070   40.8800   73.1200 O.2   268  ARG268     -0.2867
     95  CB        63.9080   41.5220   75.1320 C.3   268  ARG268      0.0307
     96  CG        63.3780   42.6890   75.9380 C.3   268  ARG268      0.0489
     97  CD        63.7780   43.9370   75.2630 C.3   268  ARG268      0.2205
     98  NE        63.5220   45.1140   76.0640 N.pl3 268  ARG268     -0.0865
     99  CZ        63.4690   46.3210   75.5360 C.cat 268  ARG268      0.5346
    100  NH1       63.2460   47.3700   76.2990 N.pl3 268  ARG268      0.1354
    101  NH2       63.6310   46.4560   74.2240 N.pl3 268  ARG268      0.1354
    102  N         52.9920   38.8270   81.3770 N.3   296  GLY296     -0.1225
    103  CA        52.7830   40.0300   80.5930 C.3   296  GLY296      0.1811
    104  C         51.9140   39.9450   79.3570 C.2   296  GLY296      0.2280
    105  O         52.2970   40.4390   78.3250 O.2   296  GLY296     -0.2866
    106  N         49.4760   41.6490   78.5220 N.3   298  ASP298     -0.1225
    107  CA        49.1300   42.9720   77.9990 C.3   298  ASP298      0.1805
    108  C         50.0070   43.3310   76.7490 C.2   298  ASP298      0.2597
    109  O         49.5570   44.0170   75.8330 O.2   298  ASP298     -0.2718
    110  CB        49.3200   44.0240   79.1070 C.3   298  ASP298      0.1424
    111  CG        50.7610   44.0520   79.6690 C.2   298  ASP298      0.3668
    112  OD1       51.2340   43.0080   80.2100 O.co2 298  ASP298     -0.2456
    113  OD2       51.4170   45.1220   79.5580 O.co2 298  ASP298     -0.2456
    114  N         51.2580   42.8630   76.7330 N.am  299  ASN299     -0.1974
    115  CA        52.2020   43.1050   75.6450 C.3   299  ASN299      0.1688
    116  C         51.6740   42.6470   74.3410 C.2   299  ASN299      0.2292
    117  O         52.1220   43.1480   73.3180 O.2   299  ASN299     -0.2864
    118  CB        53.5540   42.3890   75.8620 C.3   299  ASN299      0.1181
    119  CG        54.4990   43.1790   76.7490 C.2   299  ASN299      0.2629
    120  OD1       54.8060   44.3410   76.4670 O.2   299  ASN299     -0.2716
    121  ND2       54.9580   42.5650   77.8220 N.am  299  ASN299     -0.0877
@<TRIPOS>BOND
     1    93    94    2
     2    93    92    1
     3   117   116    2
     4    91    92    1
     5    92    95    1
     6   101    99    1
     7   116   115    1
     8    95    96    1
     9    97    96    1
    10    97    98    1
    11    82    81    2
    12    99    98    2
    13    99   100    1
    14   115   118    1
    15   115   114    1
    16   109   108    2
    17   118   119    1
    18    81    80    1
    19   120   119    2
    20   114   108   am
    21   108   107    1
    22   119   121   am
    23    80    79    1
    24    80    83    1
    25    87    85   ar
    26    87    89   ar
    27    85    84   ar
    28    90    89    1
    29   107   106    1
    30   107   110    1
    31    89    88   ar
    32    84    83    1
    33    84    86   ar
    34    24    23    1
    35   105   104    2
    36    27    26    1
    37    27    28    1
    38    88    86   ar
    39    77    76   ar
    40    25    23    1
    41   110   111    1
    42    44    43    1
    43    29    28    2
    44   104   103    1
    45    26    21   am
    46    42    41    2
    47    23    20    1
    48   113   111   ar
    49   111   112   ar
    50    28    30   am
    51    41    40    1
    52    21    22    2
    53    21    20    1
    54    76    78   ar
    55    76    75    1
    56    43    40    1
    57    20    19    1
    58   103   102    1
    59    40    39    1
    60    74    73    2
    61    75    72    1
    62    30    31    1
    63    39    32   am
    64    73    72    1
    65    32    31    1
    66    32    33    2
    67    19    14   am
    68    72    71    1
    69    31    34    1
    70    61    62    1
    71    61    58    1
    72    59    58    1
    73    59    60    2
    74    15    14    2
    75    14    13    1
    76    58    57    1
    77    18    16    1
    78    10     9    1
    79    34    35    1
    80    11     9    1
    81     9     8    2
    82    13    16    1
    83    13    12    1
    84    16    17    1
    85     4     3    2
    86    35    36    1
    87    53    51   ar
    88    53    55   ar
    89    70    68    1
    90    51    50   ar
    91     3    12   am
    92     3     2    1
    93     8     7    1
    94     6     5    1
    95     6     7    1
    96    56    55    1
    97    67    68    1
    98    67    64    1
    99    55    54   ar
   100    36    37    2
   101    36    38   am
   102    68    69    1
   103    50    49    1
   104    50    52   ar
   105    49    46    1
   106     5     2    1
   107    66    65    2
   108    65    64    1
   109     2     1    1
   110    64    63    1
   111    54    52   ar
   112    47    46    1
   113    47    48    2
   114    46    45    1
