@<TRIPOS>MOLECULE
tmp/1xruA00.pdb
 106 100 0 0 0
SMALL
GASTEIGER

@<TRIPOS>ATOM
      1  N         12.4240   -0.3680   85.9000 N.3   151  VAL151     -0.1245
      2  CA        12.8760   -1.0180   84.6800 C.3   151  VAL151      0.1561
      3  C         14.2870   -1.5490   84.9050 C.2   151  VAL151      0.2260
      4  O         15.1590   -0.8300   85.3870 O.2   151  VAL151     -0.2867
      5  CB        12.8780   -0.0340   83.4880 C.3   151  VAL151      0.0252
      6  CG1       13.8040    1.1320   83.7750 C.3   151  VAL151      0.0019
      7  CG2       13.3050   -0.7570   82.2160 C.3   151  VAL151      0.0019
      8  N         17.6660   -2.9190   83.2780 N.3   153  LEU153     -0.1245
      9  CA        18.4300   -2.9090   82.0350 C.3   153  LEU153      0.1561
     10  C         19.8740   -3.3200   82.2940 C.2   153  LEU153      0.2260
     11  O         20.2620   -3.5850   83.4310 O.2   153  LEU153     -0.2867
     12  CB        18.4380   -1.5050   81.4210 C.3   153  LEU153      0.0270
     13  CG        17.1200   -0.7990   81.1020 C.3   153  LEU153      0.0019
     14  CD1       17.4200    0.6050   80.6050 C.3   153  LEU153      0.0001
     15  CD2       16.3460   -1.5850   80.0560 C.3   153  LEU153      0.0001
     16  N         21.1620   -3.2370   86.0660 N.3   162  ARG162     -0.1245
     17  CA        20.6300   -2.3610   87.0970 C.3   162  ARG162      0.1563
     18  C         19.1260   -2.1530   86.9950 C.2   162  ARG162      0.2260
     19  O         18.5060   -2.4670   85.9780 O.2   162  ARG162     -0.2867
     20  CB        21.3240   -1.0050   86.9740 C.3   162  ARG162      0.0307
     21  CG        21.0490   -0.3330   85.6150 C.3   162  ARG162      0.0489
     22  CD        21.9960    0.8200   85.3250 C.3   162  ARG162      0.2205
     23  NE        21.6200    1.5540   84.1150 N.pl3 162  ARG162     -0.0865
     24  CZ        21.6510    1.0550   82.8820 C.cat 162  ARG162      0.5346
     25  NH1       22.0440   -0.1940   82.6680 N.pl3 162  ARG162      0.1354
     26  NH2       21.2850    1.8120   81.8550 N.pl3 162  ARG162      0.1354
     27  N         16.2360    0.7940   87.2860 N.3   164  ILE164     -0.1245
     28  CA        16.0000    2.2330   87.2700 C.3   164  ILE164      0.1561
     29  C         14.6110    2.5670   87.8150 C.2   164  ILE164      0.2260
     30  O         13.6100    1.9980   87.3830 O.2   164  ILE164     -0.2867
     31  CB        16.1450    2.7750   85.8350 C.3   164  ILE164      0.0252
     32  CG1       17.5810    2.5350   85.3530 C.3   164  ILE164      0.0019
     33  CG2       15.7870    4.2540   85.7830 C.3   164  ILE164      0.0019
     34  CD1       17.8190    2.8900   83.9050 C.3   164  ILE164      0.0001
     35  N         12.3590    5.9090   88.4000 N.3   166  LYS166     -0.1245
     36  CA        12.1940    7.3490   88.2340 C.3   166  LYS166      0.1561
     37  C         11.0030    7.8610   89.0420 C.2   166  LYS166      0.2260
     38  O          9.8480    7.6140   88.6950 O.2   166  LYS166     -0.2867
     39  CB        12.0410    7.6720   86.7480 C.3   166  LYS166      0.0271
     40  CG        13.1960    7.1090   85.9270 C.3   166  LYS166      0.0035
     41  CD        13.2120    7.6100   84.4920 C.3   166  LYS166      0.0206
     42  CE        14.4320    7.0660   83.7610 C.3   166  LYS166      0.1093
     43  NZ        14.5880    7.6310   82.3920 N.3   166  LYS166     -0.1314
     44  N          9.2500   12.5980   87.5740 N.3   169  VAL169     -0.1231
     45  CA         9.3780   12.7910   86.1310 C.3   169  VAL169      0.1678
     46  C          7.9740   13.0630   85.5950 C.2   169  VAL169      0.2434
     47  O          6.9790   12.7580   86.2580 O.2   169  VAL169     -0.2733
     48  CB         9.9610   11.5390   85.4230 C.3   169  VAL169      0.0265
     49  CG1       11.4330   11.3640   85.7950 C.3   169  VAL169      0.0020
     50  CG2        9.1650   10.3040   85.8050 C.3   169  VAL169      0.0020
     51  N          7.8740   13.6370   84.3890 N.am  170  PRO170     -0.2718
     52  CA         6.5870   13.9580   83.7610 C.3   170  PRO170      0.1535
     53  C          5.5470   12.8410   83.7870 C.2   170  PRO170      0.2598
     54  O          4.3570   13.1020   83.9660 O.2   170  PRO170     -0.2715
     55  CB         6.9920   14.3520   82.3450 C.3   170  PRO170      0.0310
     56  CG         8.3070   15.0340   82.5750 C.3   170  PRO170      0.0237
     57  CD         8.9930   14.0820   83.5420 C.3   170  PRO170      0.0939
     58  N          5.9890   11.5990   83.6260 N.am  171  ASP171     -0.1972
     59  CA         5.0620   10.4760   83.6300 C.3   171  ASP171      0.1709
     60  C          4.4630   10.1890   85.0030 C.2   171  ASP171      0.2293
     61  O          3.4690    9.4710   85.1130 O.2   171  ASP171     -0.2864
     62  CB         5.7450    9.2160   83.0890 C.3   171  ASP171      0.1436
     63  CG         6.1160    9.3400   81.6220 C.2   171  ASP171      0.3671
     64  OD1        5.2990    9.8830   80.8490 O.co2 171  ASP171     -0.2456
     65  OD2        7.2160    8.8870   81.2380 O.co2 171  ASP171     -0.2456
     66  N         18.6610    4.6460   91.0820 N.3   182  THR182     -0.1218
     67  CA        19.1320    3.5160   90.2890 C.3   182  THR182      0.1862
     68  C         19.9880    2.6010   91.1520 C.2   182  THR182      0.2287
     69  O         20.9550    3.0380   91.7740 O.2   182  THR182     -0.2866
     70  CB        19.9570    3.9910   89.0760 C.3   182  THR182      0.1770
     71  OG1       19.1090    4.7330   88.1890 O.3   182  THR182     -0.2211
     72  CG2       20.5500    2.7980   88.3270 C.3   182  THR182      0.0375
     73  N         23.0870   17.9970   86.5990 N.3   201  GLU201     -0.1245
     74  CA        22.7000   16.9190   87.4990 C.3   201  GLU201      0.1567
     75  C         23.5740   16.8520   88.7440 C.2   201  GLU201      0.2260
     76  O         24.7190   17.3150   88.7530 O.2   201  GLU201     -0.2867
     77  CB        22.7620   15.5520   86.7960 C.3   201  GLU201      0.0388
     78  CG        21.8690   15.4080   85.5700 C.3   201  GLU201      0.1160
     79  CD        21.6010   13.9550   85.2140 C.2   201  GLU201      0.3649
     80  OE1       21.8710   13.5560   84.0640 O.co2 201  GLU201     -0.2457
     81  OE2       21.1120   13.2070   86.0860 O.co2 201  GLU201     -0.2457
     82  N         19.8490   10.4160   91.3420 N.3   251  TRP251     -0.1241
     83  CA        20.2130   11.5110   90.4680 C.3   251  TRP251      0.1605
     84  C         19.1250   12.5600   90.5880 C.2   251  TRP251      0.2264
     85  O         17.9510   12.2340   90.7740 O.2   251  TRP251     -0.2867
     86  CB        20.3400   11.0550   89.0040 C.3   251  TRP251      0.0550
     87  CG        19.1330   10.3490   88.4620 C.ar  251  TRP251      0.0003
     88  CD1       18.8960    9.0080   88.4790 C.ar  251  TRP251      0.0946
     89  CD2       17.9840   10.9540   87.8520 C.ar  251  TRP251      0.0152
     90  NE1       17.6710    8.7370   87.9200 N.ar  251  TRP251     -0.2442
     91  CE2       17.0910    9.9150   87.5280 C.ar  251  TRP251      0.0810
     92  CE3       17.6240   12.2730   87.5520 C.ar  251  TRP251      0.0012
     93  CZ2       15.8550   10.1530   86.9170 C.ar  251  TRP251      0.0191
     94  CZ3       16.3990   12.5070   86.9480 C.ar  251  TRP251      0.0001
     95  CH2       15.5300   11.4520   86.6370 C.ar  251  TRP251      0.0015
     96  N         14.6400   15.2130   78.2970 N.3   259  PHE259     -0.1241
     97  CA        15.7220   14.3060   78.6400 C.3   259  PHE259      0.1605
     98  C         16.5570   13.7810   77.4820 C.2   259  PHE259      0.2264
     99  O         17.6600   13.2800   77.6920 O.2   259  PHE259     -0.2867
    100  CB        15.1310   13.1710   79.4680 C.3   259  PHE259      0.0534
    101  CG        14.2460   13.6630   80.5750 C.ar  259  PHE259     -0.0203
    102  CD1       14.7700   14.4420   81.5950 C.ar  259  PHE259     -0.0042
    103  CD2       12.8850   13.4120   80.5620 C.ar  259  PHE259     -0.0042
    104  CE1       13.9530   14.9660   82.5830 C.ar  259  PHE259     -0.0003
    105  CE2       12.0610   13.9330   81.5480 C.ar  259  PHE259     -0.0003
    106  CZ        12.5970   14.7110   82.5580 C.ar  259  PHE259     -0.0000
@<TRIPOS>BOND
     1    98    99    2
     2    98    97    1
     3    96    97    1
     4    97   100    1
     5   100   101    1
     6    15    13    1
     7   103   101   ar
     8   103   105   ar
     9   101   102   ar
    10    14    13    1
    11    64    63   ar
    12    13    12    1
    13    65    63   ar
    14    12     9    1
    15   105   106   ar
    16   102   104   ar
    17    63    62    1
    18    26    24    1
    19     9    10    1
    20     9     8    1
    21     7     5    1
    22    10    11    2
    23    55    56    1
    24    55    52    1
    25    43    42    1
    26   106   104   ar
    27    56    57    1
    28    25    24    1
    29    24    23    2
    30    62    59    1
    31     5     6    1
    32     5     2    1
    33    57    51    1
    34    58    59    1
    35    58    53   am
    36    59    60    1
    37    52    53    1
    38    52    51    1
    39    42    41    1
    40    53    54    2
    41    34    32    1
    42    80    79   ar
    43    23    22    1
    44    51    46   am
    45    41    40    1
    46     2     3    1
    47     2     1    1
    48     3     4    2
    49    60    61    2
    50    79    78    1
    51    79    81   ar
    52    22    21    1
    53    32    31    1
    54    48    49    1
    55    48    50    1
    56    48    45    1
    57    78    77    1
    58    46    45    1
    59    46    47    2
    60    21    20    1
    61    33    31    1
    62    31    28    1
    63    40    39    1
    64    19    18    2
    65    16    17    1
    66    45    44    1
    67    73    74    1
    68    95    93   ar
    69    95    94   ar
    70    39    36    1
    71    77    74    1
    72    93    91   ar
    73    94    92   ar
    74    20    17    1
    75    18    17    1
    76    28    27    1
    77    28    29    1
    78    30    29    2
    79    74    75    1
    80    91    89   ar
    81    91    90   ar
    82    92    89   ar
    83    89    87   ar
    84    90    88   ar
    85    71    70    1
    86    36    35    1
    87    36    37    1
    88    72    70    1
    89    87    88   ar
    90    87    86    1
    91    38    37    2
    92    75    76    2
    93    86    83    1
    94    70    67    1
    95    67    66    1
    96    67    68    1
    97    83    84    1
    98    83    82    1
    99    84    85    2
   100    68    69    2
