@<TRIPOS>MOLECULE
tmp/1xs5A00.pdb
 130 126 0 0 0
SMALL
GASTEIGER

@<TRIPOS>ATOM
      1  N         65.7030    7.3910   -5.0770 N.3    14  HIS14      -0.1241
      2  CA        65.4080    8.3630   -6.1240 C.3    14  HIS14       0.1621
      3  C         66.5430    8.4880   -7.1220 C.2    14  HIS14       0.2264
      4  O         66.3090    8.6960   -8.3270 O.2    14  HIS14      -0.2867
      5  CB        65.1170    9.7510   -5.4960 C.3    14  HIS14       0.0745
      6  CG        64.0740    9.7070   -4.4180 C.ar   14  HIS14       0.0817
      7  ND1       64.1960    8.9120   -3.2970 N.ar   14  HIS14      -0.2268
      8  CD2       62.8740   10.3190   -4.3180 C.ar   14  HIS14       0.1154
      9  CE1       63.1100    9.0350   -2.5540 C.ar   14  HIS14       0.1986
     10  NE2       62.2940    9.8810   -3.1510 N.ar   14  HIS14      -0.2212
     11  N         67.1030   18.8480    2.8420 N.3    40  TYR40      -0.1241
     12  CA        65.7890   19.1740    2.2980 C.3    40  TYR40       0.1605
     13  C         65.5820   20.6350    1.8330 C.2    40  TYR40       0.2264
     14  O         65.0520   20.8980    0.7290 O.2    40  TYR40      -0.2867
     15  CB        64.6870   18.8310    3.3180 C.3    40  TYR40       0.0534
     16  CG        64.5840   17.3840    3.7970 C.ar   40  TYR40      -0.0201
     17  CD1       65.0120   16.3030    3.0150 C.ar   40  TYR40      -0.0009
     18  CD2       63.9430   17.0950    5.0180 C.ar   40  TYR40      -0.0009
     19  CE1       64.7870   14.9610    3.4350 C.ar   40  TYR40       0.0417
     20  CE2       63.7220   15.7520    5.4570 C.ar   40  TYR40       0.0417
     21  CZ        64.1370   14.6970    4.6580 C.ar   40  TYR40       0.1957
     22  OH        63.8120   13.4130    5.0600 O.3    40  TYR40      -0.2866
     23  N         62.6030   14.2970   -4.3460 N.3    57  PHE57      -0.1227
     24  CA        62.9910   13.7570   -3.0280 C.3    57  PHE57       0.1736
     25  C         61.9210   13.8310   -1.9360 C.2    57  PHE57       0.2595
     26  O         62.1200   13.2660   -0.8780 O.2    57  PHE57      -0.2718
     27  CB        64.1900   14.5350   -2.4690 C.3    57  PHE57       0.0547
     28  CG        63.8020   15.8700   -1.8520 C.ar   57  PHE57      -0.0202
     29  CD1       63.5110   16.9730   -2.6540 C.ar   57  PHE57      -0.0042
     30  CD2       63.7310   16.0140   -0.4650 C.ar   57  PHE57      -0.0042
     31  CE1       63.1660   18.2170   -2.0780 C.ar   57  PHE57      -0.0003
     32  CE2       63.3920   17.2320    0.1240 C.ar   57  PHE57      -0.0003
     33  CZ        63.1140   18.3440   -0.6820 C.ar   57  PHE57      -0.0000
     34  N         60.7830   14.4860   -2.2070 N.am   58  GLN58      -0.1965
     35  CA        59.8100   14.7180   -1.1550 C.3    58  GLN58       0.1733
     36  C         58.3860   14.3360   -1.5320 C.2    58  GLN58       0.2616
     37  O         58.1190   14.0010   -2.6950 O.2    58  GLN58      -0.2715
     38  CB        59.8150   16.2190   -0.8320 C.3    58  GLN58       0.0408
     39  CG        59.0980   17.0810   -1.9580 C.3    58  GLN58       0.0908
     40  CD        59.4910   18.5790   -1.9830 C.2    58  GLN58       0.2608
     41  OE1       59.3200   19.2970   -1.0230 O.2    58  GLN58      -0.2717
     42  NE2       60.0080   19.0190   -3.0940 N.am   58  GLN58      -0.0878
     43  N         57.4920   14.4310   -0.5410 N.am   59  HIS59      -0.1973
     44  CA        56.0700   14.1870   -0.7960 C.3    59  HIS59       0.1656
     45  C         55.3310   15.5600   -0.7560 C.2    59  HIS59       0.2291
     46  O         55.9320   16.5840   -0.4060 O.2    59  HIS59      -0.2864
     47  CB        55.5000   13.1770    0.2200 C.3    59  HIS59       0.0771
     48  CG        55.9080   13.4190    1.6380 C.ar   59  HIS59       0.0820
     49  ND1       55.6050   14.5710    2.3290 N.ar   59  HIS59      -0.2267
     50  CD2       56.5410   12.6160    2.5180 C.ar   59  HIS59       0.1154
     51  CE1       56.0270   14.4660    3.5730 C.ar   59  HIS59       0.1986
     52  NE2       56.5980   13.2830    3.7120 N.ar   59  HIS59      -0.2212
     53  N         55.3420   17.7790    2.5370 N.3    62  HIS62      -0.1241
     54  CA        56.6360   18.4110    2.7770 C.3    62  HIS62       0.1621
     55  C         56.7950   19.6730    1.9090 C.2    62  HIS62       0.2264
     56  O         57.2450   20.6910    2.3790 O.2    62  HIS62      -0.2867
     57  CB        57.7700   17.4100    2.5130 C.3    62  HIS62       0.0745
     58  CG        59.1270   17.9700    2.8020 C.ar   62  HIS62       0.0817
     59  ND1       59.8520   18.6760    1.8690 N.ar   62  HIS62      -0.2268
     60  CD2       59.8500   17.9940    3.9410 C.ar   62  HIS62       0.1154
     61  CE1       60.9730   19.1050    2.4240 C.ar   62  HIS62       0.1986
     62  NE2       60.9910   18.7090    3.6850 N.ar   62  HIS62      -0.2212
     63  N         56.8690    5.2110   -0.3400 N.3    83  GLU83      -0.1245
     64  CA        57.9330    4.5820    0.4690 C.3    83  GLU83       0.1567
     65  C         57.2880    4.4830    1.8590 C.2    83  GLU83       0.2260
     66  O         57.3240    5.4710    2.6140 O.2    83  GLU83      -0.2867
     67  CB        59.0850    5.5730    0.6290 C.3    83  GLU83       0.0388
     68  CG        60.2930    5.4120   -0.1180 C.3    83  GLU83       0.1160
     69  CD        61.1490    6.6890    0.0160 C.2    83  GLU83       0.3649
     70  OE1       61.4880    7.1020    1.1480 O.co2  83  GLU83      -0.2457
     71  OE2       61.4420    7.2810   -1.0260 O.co2  83  GLU83      -0.2457
     72  N         56.9660   15.2320    8.3860 N.3   112  ASN112     -0.1240
     73  CA        57.2840   13.8270    8.6560 C.3   112  ASN112      0.1653
     74  C         57.1790   13.5040   10.1180 C.2   112  ASN112      0.2266
     75  O         57.0090   12.3350   10.4810 O.2   112  ASN112     -0.2867
     76  CB        58.6640   13.4690    8.0890 C.3   112  ASN112      0.1155
     77  CG        58.6160   13.4430    6.5870 C.2   112  ASN112      0.2627
     78  OD1       57.9440   12.5720    6.0250 O.2   112  ASN112     -0.2716
     79  ND2       59.2520   14.4340    5.9190 N.am  112  ASN112     -0.0877
     80  N         53.5270   12.7380   10.4940 N.3   115  ARG115     -0.1245
     81  CA        53.3190   11.4350    9.8590 C.3   115  ARG115      0.1563
     82  C         53.7470   10.2990   10.7870 C.2   115  ARG115      0.2260
     83  O         53.0450    9.2800   10.9150 O.2   115  ARG115     -0.2867
     84  CB        54.1400   11.4230    8.5630 C.3   115  ARG115      0.0307
     85  CG        53.9940   10.1920    7.7130 C.3   115  ARG115      0.0489
     86  CD        54.9620   10.3350    6.5460 C.3   115  ARG115      0.2205
     87  NE        54.9430    9.1610    5.6840 N.pl3 115  ARG115     -0.0865
     88  CZ        55.8650    8.9690    4.7590 C.cat 115  ARG115      0.5346
     89  NH1       56.8240    9.8720    4.6620 N.pl3 115  ARG115      0.1354
     90  NH2       55.8120    7.9320    3.9240 N.pl3 115  ARG115      0.1354
     91  N         62.2240    7.1690    7.7550 N.3   171  ASN171     -0.1225
     92  CA        61.7620    7.2900    6.3570 C.3   171  ASN171      0.1785
     93  C         62.3340    6.1200    5.5310 C.2   171  ASN171      0.2598
     94  O         63.5110    5.7470    5.7050 O.2   171  ASN171     -0.2718
     95  CB        62.2800    8.5450    5.6610 C.3   171  ASN171      0.1169
     96  CG        61.9030    9.8180    6.4040 C.2   171  ASN171      0.2627
     97  OD1       62.4970   10.1300    7.4290 O.2   171  ASN171     -0.2716
     98  ND2       60.9030   10.5270    5.8990 N.am  171  ASN171     -0.0877
     99  N         61.5530    5.6600    4.5670 N.am  172  GLY172     -0.1942
    100  CA        61.9960    4.5390    3.7500 C.3   172  GLY172      0.2014
    101  C         63.3470    4.7470    3.0810 C.2   172  GLY172      0.2638
    102  O         64.1760    3.8420    3.1090 O.2   172  GLY172     -0.2714
    103  N         63.6040    5.9260    2.5100 N.am  173  ASN173     -0.1972
    104  CA        64.8920    6.0820    1.8360 C.3   173  ASN173      0.1688
    105  C         66.0590    5.8540    2.7910 C.2   173  ASN173      0.2292
    106  O         67.0330    5.1000    2.4900 O.2   173  ASN173     -0.2864
    107  CB        64.9970    7.4800    1.1510 C.3   173  ASN173      0.1181
    108  CG        65.0630    8.6260    2.1400 C.2   173  ASN173      0.2629
    109  OD1       64.1230    8.8770    2.9000 O.2   173  ASN173     -0.2716
    110  ND2       66.1900    9.3410    2.1280 N.am  173  ASN173     -0.0877
    111  N         51.4780   10.0930    1.1150 N.3   196  TYR196     -0.1241
    112  CA        52.8350   10.5960    1.1710 C.3   196  TYR196      0.1605
    113  C         53.6720   10.1610   -0.0140 C.2   196  TYR196      0.2264
    114  O         54.8920   10.0240    0.0900 O.2   196  TYR196     -0.2867
    115  CB        53.4380   10.1800    2.5170 C.3   196  TYR196      0.0534
    116  CG        52.7900   10.9440    3.6680 C.ar  196  TYR196     -0.0201
    117  CD1       53.2090   12.2470    3.9900 C.ar  196  TYR196     -0.0009
    118  CD2       51.7380   10.3890    4.4130 C.ar  196  TYR196     -0.0009
    119  CE1       52.6100   12.9630    5.0170 C.ar  196  TYR196      0.0417
    120  CE2       51.1230   11.1120    5.4440 C.ar  196  TYR196      0.0417
    121  CZ        51.5710   12.3960    5.7410 C.ar  196  TYR196      0.1957
    122  OH        51.0050   13.1100    6.7830 O.3   196  TYR196     -0.2866
    123  N         55.8930   10.2710   -3.1950 N.3   198  ASN198     -0.1240
    124  CA        56.9880   11.1720   -3.5480 C.3   198  ASN198      0.1653
    125  C         56.7120   11.6820   -4.9450 C.2   198  ASN198      0.2266
    126  O         56.3170   10.9240   -5.8420 O.2   198  ASN198     -0.2867
    127  CB        58.3110   10.4250   -3.4840 C.3   198  ASN198      0.1155
    128  CG        58.8120   10.2490   -2.0340 C.2   198  ASN198      0.2627
    129  OD1       60.0160   10.3070   -1.7780 O.2   198  ASN198     -0.2716
    130  ND2       57.8770   10.0400   -1.0790 N.am  198  ASN198     -0.0877
@<TRIPOS>BOND
     1     4     3    2
     2     3     2    1
     3     2     5    1
     4     2     1    1
     5   126   125    2
     6     5     6    1
     7   125   124    1
     8     6     8   ar
     9     6     7   ar
    10    23    24    1
    11     8    10   ar
    12   124   127    1
    13   124   123    1
    14   127   128    1
    15     7     9   ar
    16    10     9   ar
    17    42    40   am
    18    24    27    1
    19    24    25    1
    20    37    36    2
    21    29    31   ar
    22    29    28   ar
    23    27    28    1
    24    34    25   am
    25    34    35    1
    26    31    33   ar
    27   128   129    2
    28   128   130   am
    29    40    39    1
    30    40    41    2
    31    39    38    1
    32    25    26    2
    33    28    30   ar
    34    36    35    1
    35    36    43   am
    36    35    38    1
    37    71    69   ar
    38    44    45    1
    39    44    43    1
    40    44    47    1
    41    45    46    2
    42    33    32   ar
    43    30    32   ar
    44    63    64    1
    45    68    69    1
    46    68    67    1
    47   113   114    2
    48   113   112    1
    49    69    70   ar
    50    47    48    1
    51    64    67    1
    52    64    65    1
    53    14    13    2
    54   111   112    1
    55   107   104    1
    56   107   108    1
    57   112   115    1
    58    48    49   ar
    59    48    50   ar
    60    13    12    1
    61   104   103    1
    62   104   105    1
    63    65    66    2
    64    59    61   ar
    65    59    58   ar
    66    55    56    2
    67    55    54    1
    68   110   108   am
    69   108   109    2
    70    12    11    1
    71    12    15    1
    72    49    51   ar
    73    61    62   ar
    74   106   105    2
    75   103   101   am
    76    57    54    1
    77    57    58    1
    78   115   116    1
    79    50    52   ar
    80    53    54    1
    81    58    60   ar
    82    17    19   ar
    83    17    16   ar
    84   101   102    2
    85   101   100    1
    86    15    16    1
    87    19    21   ar
    88    51    52   ar
    89   116   117   ar
    90   116   118   ar
    91    62    60   ar
    92   100    99    1
    93    16    18   ar
    94    90    88    1
    95   117   119   ar
    96   118   120   ar
    97    99    93   am
    98    21    22    1
    99    21    20   ar
   100    89    88    1
   101    88    87    2
   102   119   121   ar
   103    18    20   ar
   104   120   121   ar
   105    93    94    2
   106    93    92    1
   107    95    92    1
   108    95    96    1
   109    87    86    1
   110   121   122    1
   111    98    96   am
   112    79    77   am
   113    78    77    2
   114    92    91    1
   115    96    97    2
   116    86    85    1
   117    77    76    1
   118    85    84    1
   119    76    73    1
   120    72    73    1
   121    84    81    1
   122    73    74    1
   123    81    80    1
   124    81    82    1
   125    74    75    2
   126    82    83    2
