@<TRIPOS>MOLECULE
tmp/1xscA00.pdb
 134 127 0 0 0
SMALL
GASTEIGER

@<TRIPOS>ATOM
      1  N         -9.1710   -8.2560  -29.3870 N.3    36  ALA36      -0.1231
      2  CA        -8.0570   -8.9630  -30.0110 C.3    36  ALA36       0.1694
      3  C         -8.4860   -9.6120  -31.3210 C.2    36  ALA36       0.2593
      4  O         -9.6510   -9.9750  -31.4920 O.2    36  ALA36      -0.2718
      5  CB        -7.4990  -10.0110  -29.0590 C.3    36  ALA36       0.0304
      6  N         -7.5440   -9.7550  -32.2460 N.am   37  SER37      -0.1938
      7  CA        -7.8300  -10.3590  -33.5430 C.3    37  SER37       0.2055
      8  C         -7.7910  -11.8850  -33.4690 C.2    37  SER37       0.2643
      9  O         -7.9830  -12.5640  -34.4780 O.2    37  SER37      -0.2714
     10  CB        -6.8330   -9.8650  -34.5890 C.3    37  SER37       0.2130
     11  OG        -5.5420   -9.7000  -34.0270 O.3    37  SER37      -0.2179
     12  N         -7.5420  -12.4210  -32.2770 N.am   38  ASP38      -0.1971
     13  CA        -7.4800  -13.8670  -32.0890 C.3    38  ASP38       0.1709
     14  C         -7.4030  -14.2210  -30.6070 C.2    38  ASP38       0.2293
     15  O         -7.4850  -13.3450  -29.7460 O.2    38  ASP38      -0.2864
     16  CB        -6.2700  -14.4460  -32.8260 C.3    38  ASP38       0.1436
     17  CG        -6.6170  -14.9190  -34.2240 C.2    38  ASP38       0.3671
     18  OD1       -7.8030  -15.2250  -34.4700 O.co2  38  ASP38      -0.2456
     19  OD2       -5.7030  -14.9830  -35.0730 O.co2  38  ASP38      -0.2456
     20  N         -8.5500  -15.3530  -27.0570 N.3    40  ILE40      -0.1245
     21  CA        -9.7830  -15.2770  -26.2840 C.3    40  ILE40       0.1561
     22  C        -10.6450  -14.0930  -26.7270 C.2    40  ILE40       0.2260
     23  O        -11.7420  -13.8830  -26.2090 O.2    40  ILE40      -0.2867
     24  CB        -9.4810  -15.1590  -24.7740 C.3    40  ILE40       0.0252
     25  CG1      -10.7740  -15.1390  -23.9540 C.3    40  ILE40       0.0019
     26  CG2       -8.6550  -13.9110  -24.4950 C.3    40  ILE40       0.0019
     27  CD1      -10.5430  -15.1270  -22.4590 C.3    40  ILE40       0.0001
     28  N        -10.1760  -11.0680  -26.1500 N.3    42  HIS42      -0.1241
     29  CA       -10.2840  -10.1590  -25.0170 C.3    42  HIS42       0.1621
     30  C        -10.2950   -8.7090  -25.4860 C.2    42  HIS42       0.2264
     31  O         -9.8370   -8.3990  -26.5860 O.2    42  HIS42      -0.2867
     32  CB        -9.1230  -10.3900  -24.0480 C.3    42  HIS42       0.0745
     33  CG        -7.7800  -10.1100  -24.6470 C.ar   42  HIS42       0.0817
     34  ND1       -6.8590  -11.0990  -24.9270 N.ar   42  HIS42      -0.2268
     35  CD2       -7.2030   -8.9440  -25.0270 C.ar   42  HIS42       0.1154
     36  CE1       -5.7750  -10.5550  -25.4520 C.ar   42  HIS42       0.1986
     37  NE2       -5.9610   -9.2500  -25.5240 N.ar   42  HIS42      -0.2212
     38  N         -9.0260   -4.8770  -24.8450 N.3    44  THR44      -0.1218
     39  CA        -8.0220   -4.0550  -24.1850 C.3    44  THR44       0.1862
     40  C         -7.7240   -2.8040  -25.0050 C.2    44  THR44       0.2287
     41  O         -7.8450   -2.8130  -26.2310 O.2    44  THR44      -0.2866
     42  CB        -6.7360   -4.8570  -23.9720 C.3    44  THR44       0.1770
     43  OG1       -6.2450   -5.3570  -25.2030 O.3    44  THR44      -0.2211
     44  CG2       -6.9110   -6.0340  -23.0370 C.3    44  THR44       0.0375
     45  N         -2.4450   -0.8360  -26.8220 N.3    47  LYS47      -0.1245
     46  CA        -1.1660   -1.0280  -26.1470 C.3    47  LYS47       0.1561
     47  C         -0.0530   -1.2630  -27.1600 C.2    47  LYS47       0.2260
     48  O         -0.2470   -1.9570  -28.1580 O.2    47  LYS47      -0.2867
     49  CB        -1.2430   -2.1990  -25.1690 C.3    47  LYS47       0.0271
     50  CG        -1.9410   -3.4220  -25.7370 C.3    47  LYS47       0.0035
     51  CD        -1.9870   -4.5550  -24.7240 C.3    47  LYS47       0.0206
     52  CE        -1.7430   -5.9030  -25.3840 C.3    47  LYS47       0.1093
     53  NZ        -2.7820   -6.9010  -25.0090 N.3    47  LYS47      -0.1314
     54  N          2.6390   -8.9680  -16.4180 N.3    87  TYR87      -0.1227
     55  CA         2.2340  -10.3650  -16.5080 C.3    87  TYR87       0.1736
     56  C          2.8500  -11.0370  -17.7260 C.2    87  TYR87       0.2595
     57  O          3.0080  -10.4180  -18.7800 O.2    87  TYR87      -0.2718
     58  CB         0.7160  -10.4770  -16.5810 C.3    87  TYR87       0.0548
     59  CG         0.1010   -9.5990  -17.6470 C.ar   87  TYR87      -0.0200
     60  CD1        0.2650   -9.8950  -18.9940 C.ar   87  TYR87      -0.0009
     61  CD2       -0.6380   -8.4710  -17.3090 C.ar   87  TYR87      -0.0009
     62  CE1       -0.2900   -9.0970  -19.9750 C.ar   87  TYR87       0.0417
     63  CE2       -1.1970   -7.6660  -18.2840 C.ar   87  TYR87       0.0417
     64  CZ        -1.0210   -7.9840  -19.6160 C.ar   87  TYR87       0.1957
     65  OH        -1.5760   -7.1840  -20.5900 O.3    87  TYR87      -0.2866
     66  N          3.1850  -12.3090  -17.5730 N.am   88  VAL88      -0.1966
     67  CA         3.7760  -13.0770  -18.6620 C.3    88  VAL88       0.1727
     68  C          2.6910  -13.6330  -19.5790 C.2    88  VAL88       0.2616
     69  O          1.9380  -14.5320  -19.2050 O.2    88  VAL88      -0.2715
     70  CB         4.6510  -14.2270  -18.1230 C.3    88  VAL88       0.0290
     71  CG1        3.8050  -15.2730  -17.4210 C.3    88  VAL88       0.0023
     72  CG2        5.4590  -14.8550  -19.2450 C.3    88  VAL88       0.0023
     73  N          2.6010  -13.0780  -20.7810 N.am   89  ALA89      -0.1963
     74  CA         1.5940  -13.5080  -21.7410 C.3    89  ALA89       0.1728
     75  C          1.9000  -14.9040  -22.2900 C.2    89  ALA89       0.2616
     76  O          1.5220  -15.9080  -21.6870 O.2    89  ALA89      -0.2715
     77  CB         1.4720  -12.4870  -22.8630 C.3    89  ALA89       0.0334
     78  N          2.5870  -14.9680  -23.4280 N.am   90  ARG90      -0.1977
     79  CA         2.9310  -16.2520  -24.0330 C.3    90  ARG90       0.1597
     80  C          4.0640  -16.9170  -23.2580 C.2    90  ARG90       0.2287
     81  O          3.9840  -18.0950  -22.9090 O.2    90  ARG90      -0.2864
     82  CB         3.3220  -16.0840  -25.5070 C.3    90  ARG90       0.0334
     83  CG         4.2520  -14.9090  -25.7840 C.3    90  ARG90       0.0492
     84  CD         4.2150  -14.5080  -27.2510 C.3    90  ARG90       0.2205
     85  NE         5.1990  -13.4740  -27.5620 N.pl3  90  ARG90      -0.0865
     86  CZ         6.3360  -13.6950  -28.2210 C.cat  90  ARG90       0.5346
     87  NH1        6.6520  -14.9170  -28.6390 N.pl3  90  ARG90       0.1354
     88  NH2        7.1650  -12.6890  -28.4640 N.pl3  90  ARG90       0.1354
     89  N          5.0530   -8.7750  -19.7890 N.3    94  LYS94      -0.1245
     90  CA         4.9150   -7.4820  -20.4510 C.3    94  LYS94       0.1561
     91  C          4.4270   -6.4030  -19.4880 C.2    94  LYS94       0.2260
     92  O          3.3650   -6.5380  -18.8800 O.2    94  LYS94      -0.2867
     93  CB         3.9300   -7.5970  -21.6190 C.3    94  LYS94       0.0271
     94  CG         4.5320   -8.1740  -22.8910 C.3    94  LYS94       0.0035
     95  CD         4.9110   -7.0800  -23.8760 C.3    94  LYS94       0.0206
     96  CE         3.6810   -6.4420  -24.4960 C.3    94  LYS94       0.1093
     97  NZ         3.8440   -6.2100  -25.9580 N.3    94  LYS94      -0.1314
     98  N         -3.6000   -6.1580  -35.0280 N.3   115  GLU115     -0.1245
     99  CA        -3.7420   -6.6870  -33.6750 C.3   115  GLU115      0.1567
    100  C         -5.1610   -6.4960  -33.1370 C.2   115  GLU115      0.2260
    101  O         -5.4940   -6.9960  -32.0630 O.2   115  GLU115     -0.2867
    102  CB        -2.7380   -6.0110  -32.7400 C.3   115  GLU115      0.0388
    103  CG        -1.2930   -6.1780  -33.1780 C.3   115  GLU115      0.1160
    104  CD        -0.3640   -5.1790  -32.5180 C.2   115  GLU115      0.3649
    105  OE1       -0.6540   -4.7640  -31.3760 O.co2 115  GLU115     -0.2457
    106  OE2        0.6530   -4.8100  -33.1420 O.co2 115  GLU115     -0.2457
    107  N        -10.0280   -9.6390  -17.7580 N.3   133  PHE133     -0.1241
    108  CA        -8.7160   -9.6200  -17.1310 C.3   133  PHE133      0.1605
    109  C         -8.7040   -8.6310  -15.9670 C.2   133  PHE133      0.2264
    110  O         -8.8630   -7.4250  -16.1620 O.2   133  PHE133     -0.2867
    111  CB        -7.6460   -9.2590  -18.1650 C.3   133  PHE133      0.0534
    112  CG        -7.4530  -10.3220  -19.2120 C.ar  133  PHE133     -0.0203
    113  CD1       -8.4420  -10.5760  -20.1510 C.ar  133  PHE133     -0.0042
    114  CD2       -6.2890  -11.0730  -19.2560 C.ar  133  PHE133     -0.0042
    115  CE1       -8.2740  -11.5540  -21.1090 C.ar  133  PHE133     -0.0003
    116  CE2       -6.1160  -12.0540  -20.2130 C.ar  133  PHE133     -0.0003
    117  CZ        -7.1100  -12.2960  -21.1400 C.ar  133  PHE133     -0.0000
    118  N         -6.4350   -7.3020  -14.1870 N.3   135  GLU135     -0.1231
    119  CA        -5.4890   -6.2160  -14.4020 C.3   135  GLU135      0.1699
    120  C         -6.1380   -5.0400  -15.1260 C.2   135  GLU135      0.2592
    121  O         -5.9770   -3.8890  -14.7230 O.2   135  GLU135     -0.2718
    122  CB        -4.2870   -6.7180  -15.1970 C.3   135  GLU135      0.0402
    123  CG        -3.7330   -8.0420  -14.6940 C.3   135  GLU135      0.1161
    124  CD        -4.3020   -9.2410  -15.4260 C.2   135  GLU135      0.3649
    125  OE1       -5.4610   -9.1630  -15.8800 O.co2 135  GLU135     -0.2457
    126  OE2       -3.5880  -10.2590  -15.5410 O.co2 135  GLU135     -0.2457
    127  N         -6.8700   -5.3310  -16.1960 N.am  136  MET136     -0.1979
    128  CA        -7.5330   -4.2850  -16.9640 C.3   136  MET136      0.1605
    129  C         -8.7030   -3.7050  -16.1840 C.2   136  MET136      0.2287
    130  O         -8.8680   -2.4860  -16.1160 O.2   136  MET136     -0.2864
    131  CB        -8.0140   -4.8290  -18.3060 C.3   136  MET136      0.0413
    132  CG        -6.8790   -5.2430  -19.2240 C.3   136  MET136      0.0598
    133  SD        -6.3510   -3.9230  -20.3380 S.3   136  MET136     -0.1393
    134  CE        -6.5300   -2.4700  -19.3000 C.3   136  MET136      0.0692
@<TRIPOS>BOND
     1    19    17   ar
     2    98    99    1
     3    10    11    1
     4    10     7    1
     5     9     8    2
     6    18    17   ar
     7    17    16    1
     8    99   100    1
     9    99   102    1
    10     7     8    1
    11     7     6    1
    12     8    12   am
    13   103   102    1
    14   103   104    1
    15   106   104   ar
    16   100   101    2
    17    16    13    1
    18   104   105   ar
    19    12    13    1
    20     6     3   am
    21    13    14    1
    22     4     3    2
    23     3     2    1
    24    14    15    2
    25     2     1    1
    26     2     5    1
    27    87    86    1
    28    88    86    1
    29    86    85    2
    30    48    47    2
    31    85    84    1
    32    84    83    1
    33    47    46    1
    34    20    21    1
    35    45    46    1
    36    22    21    1
    37    22    23    2
    38    31    30    2
    39    21    24    1
    40    41    40    2
    41    28    29    1
    42    46    49    1
    43    97    96    1
    44    83    82    1
    45    50    49    1
    46    50    51    1
    47    37    36   ar
    48    37    35   ar
    49    82    79    1
    50    30    29    1
    51    36    34   ar
    52    52    53    1
    53    52    51    1
    54    43    42    1
    55    35    33   ar
    56    29    32    1
    57    40    39    1
    58    34    33   ar
    59    38    39    1
    60    24    26    1
    61    24    25    1
    62    33    32    1
    63    96    95    1
    64    39    42    1
    65    79    78    1
    66    79    80    1
    67    42    44    1
    68    25    27    1
    69    95    94    1
    70    78    75   am
    71    80    81    2
    72    94    93    1
    73    77    74    1
    74    75    74    1
    75    75    76    2
    76    74    73    1
    77    93    90    1
    78   117   115   ar
    79   117   116   ar
    80   115   113   ar
    81    73    68   am
    82    65    64    1
    83    90    89    1
    84    90    91    1
    85   133   134    1
    86   133   132    1
    87   116   114   ar
    88   113   112   ar
    89    62    64   ar
    90    62    60   ar
    91    64    63   ar
    92    68    69    2
    93    68    67    1
    94    91    92    2
    95   114   112   ar
    96    72    70    1
    97   132   131    1
    98   112   111    1
    99    60    59   ar
   100    57    56    2
   101    67    70    1
   102    67    66    1
   103   131   128    1
   104    63    61   ar
   105   111   108    1
   106    70    71    1
   107   107   108    1
   108    56    66   am
   109    56    55    1
   110    59    61   ar
   111    59    58    1
   112   108   109    1
   113   128   127    1
   114   128   129    1
   115    58    55    1
   116    55    54    1
   117   127   120   am
   118   129   130    2
   119   110   109    2
   120   125   124   ar
   121   126   124   ar
   122   124   123    1
   123   122   123    1
   124   122   119    1
   125   120   121    2
   126   120   119    1
   127   119   118    1
