@<TRIPOS>MOLECULE
tmp/1xsiE00.pdb
 86 83 0 0 0
SMALL
GASTEIGER

@<TRIPOS>ATOM
      1  N        127.1630  165.1380  107.7810 N.3   637  HIS637     -0.1241
      2  CA       125.9900  164.2860  107.8580 C.3   637  HIS637      0.1621
      3  C        125.1460  164.4600  106.6030 C.2   637  HIS637      0.2264
      4  O        124.9430  165.5800  106.1580 O.2   637  HIS637     -0.2867
      5  CB       125.1780  164.5210  109.1180 C.3   637  HIS637      0.0745
      6  CG       124.1870  163.4370  109.3670 C.ar  637  HIS637      0.0817
      7  ND1      123.0750  163.2520  108.5720 N.ar  637  HIS637     -0.2268
      8  CD2      124.1700  162.4380  110.2740 C.ar  637  HIS637      0.1154
      9  CE1      122.3940  162.2080  109.0060 C.ar  637  HIS637      0.1986
     10  NE2      123.0450  161.6880  110.0300 N.ar  637  HIS637     -0.2212
     11  N        121.5210  165.8680  108.0430 N.3   640  HIS640     -0.1241
     12  CA       121.7510  166.8570  109.1060 C.3   640  HIS640      0.1621
     13  C        122.7360  167.9790  108.7240 C.2   640  HIS640      0.2264
     14  O        122.6390  169.0960  109.2470 O.2   640  HIS640     -0.2867
     15  CB       122.1910  166.2190  110.4120 C.3   640  HIS640      0.0745
     16  CG       121.1360  165.4090  111.0690 C.ar  640  HIS640      0.0817
     17  ND1      119.8100  165.7910  111.0940 N.ar  640  HIS640     -0.2268
     18  CD2      121.1950  164.2060  111.6930 C.ar  640  HIS640      0.1154
     19  CE1      119.0970  164.8660  111.7080 C.ar  640  HIS640      0.1986
     20  NE2      119.9160  163.8940  112.0850 N.ar  640  HIS640     -0.2212
     21  N        125.6630  168.6340  109.5750 N.3   642  ASP642     -0.1239
     22  CA       126.6310  168.9780  110.6030 C.3   642  ASP642      0.1674
     23  C        127.9640  168.3140  110.2560 C.2   642  ASP642      0.2266
     24  O        128.0070  167.2780  109.5640 O.2   642  ASP642     -0.2867
     25  CB       126.1490  168.4980  111.9850 C.3   642  ASP642      0.1410
     26  CG       126.0940  166.9450  112.0980 C.2   642  ASP642      0.3668
     27  OD1      125.0860  166.3340  111.6490 O.co2 642  ASP642     -0.2456
     28  OD2      127.0090  166.2540  112.6080 O.co2 642  ASP642     -0.2456
     29  N        131.9430  166.8670  111.2740 N.3   644  LEU644     -0.1245
     30  CA       132.8300  166.2310  112.2610 C.3   644  LEU644      0.1561
     31  C        134.2180  166.0400  111.6840 C.2   644  LEU644      0.2260
     32  O        134.3680  165.7280  110.4940 O.2   644  LEU644     -0.2867
     33  CB       132.2830  164.8640  112.7110 C.3   644  LEU644      0.0270
     34  CG       130.9180  164.7940  113.4260 C.3   644  LEU644      0.0019
     35  CD1      130.4720  163.2930  113.5810 C.3   644  LEU644      0.0001
     36  CD2      130.8720  165.5500  114.8010 C.3   644  LEU644      0.0001
     37  N        127.1670  160.1950  119.9030 N.3   652  GLN652     -0.1231
     38  CA       125.9390  160.9360  119.5300 C.3   652  GLN652      0.1698
     39  C        124.6380  160.2910  120.0130 C.2   652  GLN652      0.2592
     40  O        124.6270  159.2100  120.5830 O.2   652  GLN652     -0.2718
     41  CB       125.8490  161.1010  118.0170 C.3   652  GLN652      0.0381
     42  CG       126.8390  162.1010  117.4810 C.3   652  GLN652      0.0905
     43  CD       126.7380  162.3010  115.9670 C.2   652  GLN652      0.2608
     44  OE1      127.3650  163.2200  115.4040 O.2   652  GLN652     -0.2717
     45  NE2      125.9800  161.4510  115.3040 N.am  652  GLN652     -0.0878
     46  N        123.5180  160.9480  119.7510 N.am  653  GLN653     -0.1966
     47  CA       122.2640  160.4100  120.2150 C.3   653  GLN653      0.1733
     48  C        121.2220  160.7360  119.1790 C.2   653  GLN653      0.2616
     49  O        121.1270  161.8710  118.7520 O.2   653  GLN653     -0.2715
     50  CB       121.9390  160.9900  121.5860 C.3   653  GLN653      0.0408
     51  CG       121.1920  160.0450  122.4350 C.3   653  GLN653      0.0908
     52  CD       119.8680  160.6050  122.7720 C.2   653  GLN653      0.2608
     53  OE1      119.6300  160.9360  123.9310 O.2   653  GLN653     -0.2717
     54  NE2      119.0070  160.7940  121.7550 N.am  653  GLN653     -0.0878
     55  N        120.4950  159.7290  118.7120 N.am  654  HIS654     -0.1959
     56  CA       119.5890  159.9190  117.5800 C.3   654  HIS654      0.1787
     57  C        118.2210  159.3400  117.9070 C.2   654  HIS654      0.2620
     58  O        118.1270  158.1710  118.3430 O.2   654  HIS654     -0.2715
     59  CB       120.1280  159.2480  116.2990 C.3   654  HIS654      0.0785
     60  CG       121.3980  159.8420  115.7800 C.ar  654  HIS654      0.0821
     61  ND1      121.4700  160.5270  114.5830 N.ar  654  HIS654     -0.2267
     62  CD2      122.6440  159.8750  116.3030 C.ar  654  HIS654      0.1154
     63  CE1      122.7080  160.9460  114.3870 C.ar  654  HIS654      0.1986
     64  NE2      123.4420  160.5520  115.4080 N.ar  654  HIS654     -0.2212
     65  N        117.1740  160.1590  117.7080 N.am  655  GLY655     -0.1954
     66  CA       115.7980  159.6730  117.6990 C.3   655  GLY655      0.1869
     67  C        115.5650  158.7620  116.5050 C.2   655  GLY655      0.2309
     68  O        116.4620  158.5820  115.6680 O.2   655  GLY655     -0.2863
     69  N        116.6660  159.1700  112.7260 N.3   658  SER658     -0.1217
     70  CA       118.0490  159.4870  112.4990 C.3   658  SER658      0.1889
     71  C        119.0620  158.3830  112.8580 C.2   658  SER658      0.2288
     72  O        118.8100  157.5270  113.7080 O.2   658  SER658     -0.2866
     73  CB       118.3730  160.7870  113.2200 C.3   658  SER658      0.2089
     74  OG       119.5820  161.3370  112.7330 O.3   658  SER658     -0.2183
     75  N        127.3800  159.6640  107.3480 N.3   662  TYR662     -0.1241
     76  CA       128.3450  160.7710  107.1460 C.3   662  TYR662      0.1605
     77  C        129.0390  160.5950  105.8580 C.2   662  TYR662      0.2264
     78  O        129.2840  159.4670  105.4300 O.2   662  TYR662     -0.2867
     79  CB       129.3650  160.8660  108.2890 C.3   662  TYR662      0.0534
     80  CG       128.8190  161.5970  109.4630 C.ar  662  TYR662     -0.0201
     81  CD1      128.9940  162.9970  109.5920 C.ar  662  TYR662     -0.0009
     82  CD2      128.0890  160.9300  110.4490 C.ar  662  TYR662     -0.0009
     83  CE1      128.4600  163.6910  110.6550 C.ar  662  TYR662      0.0417
     84  CE2      127.5660  161.6370  111.5460 C.ar  662  TYR662      0.0417
     85  CZ       127.7520  163.0350  111.6360 C.ar  662  TYR662      0.1957
     86  OH       127.2550  163.7690  112.7480 O.3   662  TYR662     -0.2866
@<TRIPOS>BOND
     1    78    77    2
     2    77    76    1
     3     4     3    2
     4     3     2    1
     5    76    75    1
     6    76    79    1
     7     1     2    1
     8     2     5    1
     9    11    12    1
    10    79    80    1
    11     7     9   ar
    12     7     6   ar
    13    13    12    1
    14    13    14    2
    15     9    10   ar
    16    12    15    1
    17     5     6    1
    18     6     8   ar
    19    80    81   ar
    20    80    82   ar
    21    24    23    2
    22    21    22    1
    23    81    83   ar
    24    10     8   ar
    25    23    22    1
    26    15    16    1
    27    82    84   ar
    28    32    31    2
    29    22    25    1
    30    83    85   ar
    31    16    17   ar
    32    16    18   ar
    33    17    19   ar
    34    29    30    1
    35    84    85   ar
    36    85    86    1
    37    27    26   ar
    38    31    30    1
    39    18    20   ar
    40    19    20   ar
    41    25    26    1
    42    26    28   ar
    43    30    33    1
    44    70    69    1
    45    70    71    1
    46    70    73    1
    47    33    34    1
    48    74    73    1
    49    71    72    2
    50    34    35    1
    51    34    36    1
    52    63    61   ar
    53    63    64   ar
    54    61    60   ar
    55    45    43   am
    56    44    43    2
    57    64    62   ar
    58    68    67    2
    59    60    59    1
    60    60    62   ar
    61    43    42    1
    62    59    56    1
    63    67    66    1
    64    42    41    1
    65    56    57    1
    66    56    55    1
    67    66    65    1
    68    65    57   am
    69    57    58    2
    70    41    38    1
    71    55    48   am
    72    49    48    2
    73    48    47    1
    74    38    37    1
    75    38    39    1
    76    46    39   am
    77    46    47    1
    78    39    40    2
    79    47    50    1
    80    50    51    1
    81    54    52   am
    82    51    52    1
    83    52    53    2
