@<TRIPOS>MOLECULE
tmp/1xsjE00.pdb
 135 134 0 0 0
SMALL
GASTEIGER

@<TRIPOS>ATOM
      1  N        -31.3330   -6.3120    6.6900 N.3   277  PHE277     -0.1241
      2  CA       -31.6030   -5.4560    7.8620 C.3   277  PHE277      0.1605
      3  C        -31.1770   -3.9840    7.6540 C.2   277  PHE277      0.2264
      4  O        -32.0310   -3.1120    7.4400 O.2   277  PHE277     -0.2867
      5  CB       -30.9410   -6.0940    9.1110 C.3   277  PHE277      0.0534
      6  CG       -30.9480   -5.2130   10.3780 C.ar  277  PHE277     -0.0203
      7  CD1      -32.0130   -4.3590   10.6670 C.ar  277  PHE277     -0.0042
      8  CD2      -29.8790   -5.3010   11.2990 C.ar  277  PHE277     -0.0042
      9  CE1      -31.9920   -3.5670   11.8120 C.ar  277  PHE277     -0.0003
     10  CE2      -29.8650   -4.5280   12.4510 C.ar  277  PHE277     -0.0003
     11  CZ       -30.9320   -3.6600   12.6980 C.ar  277  PHE277     -0.0000
     12  N        -37.8880   -5.6570    6.1630 N.3   306  ASP306     -0.1225
     13  CA       -37.2870   -5.5390    7.5010 C.3   306  ASP306      0.1805
     14  C        -37.3910   -4.1190    8.0450 C.2   306  ASP306      0.2598
     15  O        -38.1330   -3.3040    7.5060 O.2   306  ASP306     -0.2718
     16  CB       -35.8320   -6.0370    7.5270 C.3   306  ASP306      0.1424
     17  CG       -35.5030   -6.8040    8.7810 C.2   306  ASP306      0.3668
     18  OD1      -36.4080   -7.4990    9.3280 O.co2 306  ASP306     -0.2456
     19  OD2      -34.3500   -6.8160    9.2870 O.co2 306  ASP306     -0.2456
     20  N        -36.6710   -3.8290    9.1350 N.am  307  CYS307     -0.1970
     21  CA       -36.9460   -2.6410    9.9630 C.3   307  CYS307      0.1712
     22  C        -37.0950   -1.3080    9.2600 C.2   307  CYS307      0.2296
     23  O        -37.9150   -0.5140    9.6890 O.2   307  CYS307     -0.2864
     24  CB       -35.9200   -2.4860   11.0960 C.3   307  CYS307      0.0983
     25  SG       -35.5060   -4.0040   11.9070 S.3   307  CYS307     -0.0798
     26  N        -41.7580   -6.5360    9.2570 N.3   345  TRP345     -0.1241
     27  CA       -41.1620   -6.5620   10.5910 C.3   345  TRP345      0.1605
     28  C        -41.9610   -5.7140   11.5670 C.2   345  TRP345      0.2264
     29  O        -42.3740   -4.6280   11.2430 O.2   345  TRP345     -0.2867
     30  CB       -39.7450   -5.9700   10.5020 C.3   345  TRP345      0.0550
     31  CG       -38.9740   -5.9050   11.8040 C.ar  345  TRP345      0.0003
     32  CD1      -38.0870   -6.8240   12.2770 C.ar  345  TRP345      0.0946
     33  CD2      -39.0100   -4.8430   12.7750 C.ar  345  TRP345      0.0152
     34  NE1      -37.5520   -6.3980   13.4780 N.ar  345  TRP345     -0.2442
     35  CE2      -38.1000   -5.1870   13.8080 C.ar  345  TRP345      0.0810
     36  CE3      -39.6940   -3.6080   12.8570 C.ar  345  TRP345      0.0012
     37  CZ2      -37.8720   -4.3610   14.9280 C.ar  345  TRP345      0.0191
     38  CZ3      -39.4650   -2.7810   13.9580 C.ar  345  TRP345      0.0001
     39  CH2      -38.5510   -3.1620   14.9840 C.ar  345  TRP345      0.0015
     40  N        -31.3250   -0.4690   21.3240 N.3   380  TRP380     -0.1241
     41  CA       -32.1250   -0.6390   20.0820 C.3   380  TRP380      0.1605
     42  C        -32.6140    0.6510   19.4470 C.2   380  TRP380      0.2264
     43  O        -32.2070    0.9580   18.3110 O.2   380  TRP380     -0.2867
     44  CB       -33.2760   -1.6540   20.2490 C.3   380  TRP380      0.0550
     45  CG       -34.0370   -1.9380   18.9710 C.ar  380  TRP380      0.0003
     46  CD1      -35.3720   -1.6890   18.7220 C.ar  380  TRP380      0.0946
     47  CD2      -33.5150   -2.5680   17.7890 C.ar  380  TRP380      0.0152
     48  NE1      -35.6990   -2.1320   17.4600 N.ar  380  TRP380     -0.2442
     49  CE2      -34.5780   -2.6700   16.8640 C.ar  380  TRP380      0.0810
     50  CE3      -32.2430   -3.0580   17.4190 C.ar  380  TRP380      0.0012
     51  CZ2      -34.4150   -3.2180   15.5870 C.ar  380  TRP380      0.0191
     52  CZ3      -32.0810   -3.6340   16.1490 C.ar  380  TRP380      0.0001
     53  CH2      -33.1610   -3.7100   15.2560 C.ar  380  TRP380      0.0015
     54  N        -43.3840  -10.5710   11.1680 N.3   414  LYS414     -0.1245
     55  CA       -42.2060  -11.0330   11.8860 C.3   414  LYS414      0.1561
     56  C        -42.2550  -10.3800   13.2820 C.2   414  LYS414      0.2260
     57  O        -42.0590   -9.1910   13.4040 O.2   414  LYS414     -0.2867
     58  CB       -40.9600  -10.6210   11.0990 C.3   414  LYS414      0.0271
     59  CG       -39.6310  -10.8180   11.8410 C.3   414  LYS414      0.0035
     60  CD       -38.4450  -10.3730   10.9310 C.3   414  LYS414      0.0206
     61  CE       -37.0890  -10.5720   11.6250 C.3   414  LYS414      0.1093
     62  NZ       -35.9340  -10.3930   10.6850 N.3   414  LYS414     -0.1314
     63  N        -40.5200   -9.7000   16.1180 N.3   416  ASP416     -0.1225
     64  CA       -39.1300   -9.6940   16.5070 C.3   416  ASP416      0.1805
     65  C        -39.0690   -9.2260   17.9550 C.2   416  ASP416      0.2597
     66  O        -40.0170   -8.6220   18.4410 O.2   416  ASP416     -0.2718
     67  CB       -38.3980   -8.6790   15.6130 C.3   416  ASP416      0.1424
     68  CG       -36.8950   -8.8800   15.6390 C.2   416  ASP416      0.3668
     69  OD1      -36.4510   -9.7890   16.3510 O.co2 416  ASP416     -0.2456
     70  OD2      -36.1060   -8.1820   14.9830 O.co2 416  ASP416     -0.2456
     71  N        -37.9390   -9.4950   18.6260 N.am  417  PHE417     -0.1976
     72  CA       -37.7020   -9.0340   19.9980 C.3   417  PHE417      0.1639
     73  C        -38.6900   -9.6410   21.0190 C.2   417  PHE417      0.2290
     74  O        -39.1900  -10.7560   20.8050 O.2   417  PHE417     -0.2864
     75  CB       -37.6530   -7.4870   20.0580 C.3   417  PHE417      0.0560
     76  CG       -36.4430   -6.9080   19.3710 C.ar  417  PHE417     -0.0200
     77  CD1      -36.4840   -6.6150   18.0040 C.ar  417  PHE417     -0.0042
     78  CD2      -35.2340   -6.7270   20.0580 C.ar  417  PHE417     -0.0042
     79  CE1      -35.3580   -6.0900   17.3200 C.ar  417  PHE417     -0.0003
     80  CE2      -34.0770   -6.2050   19.3740 C.ar  417  PHE417     -0.0003
     81  CZ       -34.1430   -5.9190   18.0010 C.ar  417  PHE417     -0.0000
     82  N        -39.2050  -14.3850   17.2010 N.3   466  ARG466     -0.1245
     83  CA       -37.8600  -14.5110   17.8220 C.3   466  ARG466      0.1563
     84  C        -37.8190  -15.0060   19.2600 C.2   466  ARG466      0.2260
     85  O        -36.8550  -15.6650   19.6310 O.2   466  ARG466     -0.2867
     86  CB       -37.0620  -13.2000   17.7820 C.3   466  ARG466      0.0307
     87  CG       -35.5140  -13.4930   17.6940 C.3   466  ARG466      0.0489
     88  CD       -34.6200  -12.2380   17.5200 C.3   466  ARG466      0.2205
     89  NE       -34.6000  -11.3830   18.7190 N.pl3 466  ARG466     -0.0865
     90  CZ       -33.8650  -10.2920   18.8250 C.cat 466  ARG466      0.5346
     91  NH1      -33.1020   -9.9120   17.7890 N.pl3 466  ARG466      0.1354
     92  NH2      -33.8540   -9.6070   19.9590 N.pl3 466  ARG466      0.1354
     93  N        -37.8990  -18.4940   14.4860 N.3   479  TRP479     -0.1241
     94  CA       -36.5850  -18.5820   13.8540 C.3   479  TRP479      0.1605
     95  C        -35.4430  -18.3760   14.8560 C.2   479  TRP479      0.2264
     96  O        -35.6040  -17.6690   15.8770 O.2   479  TRP479     -0.2867
     97  CB       -36.5030  -17.6680   12.6160 C.3   479  TRP479      0.0550
     98  CG       -35.8060  -16.3660   12.8570 C.ar  479  TRP479      0.0003
     99  CD1      -34.4820  -16.0710   12.6120 C.ar  479  TRP479      0.0946
    100  CD2      -36.3950  -15.1760   13.3860 C.ar  479  TRP479      0.0152
    101  NE1      -34.2210  -14.7620   12.9700 N.ar  479  TRP479     -0.2442
    102  CE2      -35.3750  -14.1880   13.4430 C.ar  479  TRP479      0.0810
    103  CE3      -37.6890  -14.8320   13.8100 C.ar  479  TRP479      0.0012
    104  CZ2      -35.6060  -12.8930   13.9230 C.ar  479  TRP479      0.0191
    105  CZ3      -37.9290  -13.5180   14.2660 C.ar  479  TRP479      0.0001
    106  CH2      -36.8780  -12.5780   14.3430 C.ar  479  TRP479      0.0015
    107  N        -30.0510  -14.2540   15.3910 N.3   482  ASP482     -0.1239
    108  CA       -28.9160  -13.6080   14.7070 C.3   482  ASP482      0.1674
    109  C        -27.6480  -14.4610   14.7310 C.2   482  ASP482      0.2266
    110  O        -26.7800  -14.2700   15.5890 O.2   482  ASP482     -0.2867
    111  CB       -28.6240  -12.2350   15.3260 C.3   482  ASP482      0.1410
    112  CG       -29.8090  -11.3150   15.2670 C.2   482  ASP482      0.3668
    113  OD1      -30.7270  -11.5760   14.4490 O.co2 482  ASP482     -0.2456
    114  OD2      -29.9010  -10.2860   15.9860 O.co2 482  ASP482     -0.2456
    115  N        -26.7430  -14.6100    9.3680 N.3   515  PHE515     -0.1241
    116  CA       -27.2550  -13.2440    9.4750 C.3   515  PHE515      0.1605
    117  C        -26.0820  -12.2290    9.4140 C.2   515  PHE515      0.2264
    118  O        -26.0120  -11.3920    8.5110 O.2   515  PHE515     -0.2867
    119  CB       -28.1030  -13.0900   10.7500 C.3   515  PHE515      0.0534
    120  CG       -28.3630  -11.6530   11.1480 C.ar  515  PHE515     -0.0203
    121  CD1      -27.6880  -11.0940   12.2220 C.ar  515  PHE515     -0.0042
    122  CD2      -29.3020  -10.8870   10.4770 C.ar  515  PHE515     -0.0042
    123  CE1      -27.9120   -9.7820   12.6240 C.ar  515  PHE515     -0.0003
    124  CE2      -29.5570   -9.5630   10.8760 C.ar  515  PHE515     -0.0003
    125  CZ       -28.8300   -9.0050   11.9580 C.ar  515  PHE515     -0.0000
    126  N        -32.0750  -14.2640    4.8180 N.3   540  HIS540     -0.1241
    127  CA       -32.0510  -12.9870    5.5510 C.3   540  HIS540      0.1621
    128  C        -30.6330  -12.6720    5.9940 C.2   540  HIS540      0.2264
    129  O        -29.9070  -13.5810    6.3620 O.2   540  HIS540     -0.2867
    130  CB       -32.9530  -13.0350    6.7660 C.3   540  HIS540      0.0745
    131  CG       -33.0260  -11.7320    7.5110 C.ar  540  HIS540      0.0817
    132  ND1      -33.3850  -10.5430    6.9110 N.ar  540  HIS540     -0.2268
    133  CD2      -32.7900  -11.4360    8.8120 C.ar  540  HIS540      0.1154
    134  CE1      -33.3470   -9.5660    7.7990 C.ar  540  HIS540      0.1986
    135  NE2      -33.0050  -10.0840    8.9670 N.ar  540  HIS540     -0.2212
@<TRIPOS>BOND
     1   126   127    1
     2   127   128    1
     3   127   130    1
     4   128   129    2
     5    12    13    1
     6     1     2    1
     7   130   131    1
     8   132   131   ar
     9   132   134   ar
    10     4     3    2
    11    13    16    1
    12    13    14    1
    13    15    14    2
    14   131   133   ar
    15    16    17    1
    16     3     2    1
    17   134   135   ar
    18     2     5    1
    19    14    20   am
    20   118   117    2
    21    17    19   ar
    22    17    18   ar
    23   133   135   ar
    24     5     6    1
    25    20    21    1
    26    26    27    1
    27    22    23    2
    28    22    21    1
    29   115   116    1
    30   117   116    1
    31   116   119    1
    32    21    24    1
    33     6     7   ar
    34     6     8   ar
    35   122   124   ar
    36   122   120   ar
    37    30    27    1
    38    30    31    1
    39    27    28    1
    40     7     9   ar
    41    62    61    1
    42   119   120    1
    43   124   125   ar
    44    60    61    1
    45    60    59    1
    46    24    25    1
    47    58    59    1
    48    58    55    1
    49   120   121   ar
    50    54    55    1
    51    29    28    2
    52     8    10   ar
    53    31    32   ar
    54    31    33   ar
    55     9    11   ar
    56    55    56    1
    57   125   123   ar
    58   121   123   ar
    59    32    34   ar
    60    10    11   ar
    61    99    98   ar
    62    99   101   ar
    63    97    98    1
    64    97    94    1
    65    33    36   ar
    66    33    35   ar
    67    98   100   ar
    68    36    38   ar
    69   101   102   ar
    70    56    57    2
    71   100   102   ar
    72   100   103   ar
    73   102   104   ar
    74    34    35   ar
    75    35    37   ar
    76   103   105   ar
    77    94    93    1
    78    94    95    1
    79   104   106   ar
    80    38    39   ar
    81   105   106   ar
    82   113   112   ar
    83   108   109    1
    84   108   111    1
    85   108   107    1
    86   109   110    2
    87    95    96    2
    88    37    39   ar
    89    70    68   ar
    90    53    51   ar
    91    53    52   ar
    92   112   111    1
    93   112   114   ar
    94    51    49   ar
    95    67    68    1
    96    67    64    1
    97    68    69   ar
    98    63    64    1
    99    52    50   ar
   100    64    65    1
   101    49    48   ar
   102    49    47   ar
   103    82    83    1
   104    79    81   ar
   105    79    77   ar
   106    50    47   ar
   107    48    46   ar
   108    88    87    1
   109    88    89    1
   110    87    86    1
   111    86    83    1
   112    91    90    1
   113    47    45   ar
   114    83    84    1
   115    65    66    2
   116    65    71   am
   117    81    80   ar
   118    77    76   ar
   119    43    42    2
   120    71    72    1
   121    89    90    2
   122    46    45   ar
   123    90    92    1
   124    45    44    1
   125    84    85    2
   126    76    78   ar
   127    76    75    1
   128    80    78   ar
   129    42    41    1
   130    72    75    1
   131    72    73    1
   132    41    44    1
   133    41    40    1
   134    74    73    2
