@<TRIPOS>MOLECULE
tmp/1xskE00.pdb
 135 134 0 0 0
SMALL
GASTEIGER

@<TRIPOS>ATOM
      1  N        106.6870  134.5680  108.4240 N.3   277  PHE277     -0.1241
      2  CA       106.8090  133.1100  108.3630 C.3   277  PHE277      0.1605
      3  C        105.5740  132.2900  108.7290 C.2   277  PHE277      0.2264
      4  O        104.8310  131.8580  107.8470 O.2   277  PHE277     -0.2867
      5  CB       108.0170  132.6660  109.2120 C.3   277  PHE277      0.0534
      6  CG       108.2610  131.1730  109.2120 C.ar  277  PHE277     -0.0203
      7  CD1      108.0830  130.4170  108.0560 C.ar  277  PHE277     -0.0042
      8  CD2      108.6850  130.5280  110.3740 C.ar  277  PHE277     -0.0042
      9  CE1      108.3200  129.0380  108.0580 C.ar  277  PHE277     -0.0003
     10  CE2      108.9270  129.1470  110.3850 C.ar  277  PHE277     -0.0003
     11  CZ       108.7430  128.4050  109.2240 C.ar  277  PHE277     -0.0000
     12  N        105.9030  134.1770  101.7220 N.3   306  ASP306     -0.1225
     13  CA       106.6920  133.1720  102.4330 C.3   306  ASP306      0.1805
     14  C        106.1490  131.7310  102.2860 C.2   306  ASP306      0.2598
     15  O        105.2730  131.4790  101.4600 O.2   306  ASP306     -0.2718
     16  CB       106.8380  133.5440  103.9120 C.3   306  ASP306      0.1424
     17  CG       108.2140  133.1540  104.4800 C.2   306  ASP306      0.3668
     18  OD1      109.2540  133.5010  103.8610 O.co2 306  ASP306     -0.2456
     19  OD2      108.2590  132.5040  105.5490 O.co2 306  ASP306     -0.2456
     20  N        106.6780  130.8080  103.0960 N.am  307  CYS307     -0.1970
     21  CA       106.3380  129.3680  103.0580 C.3   307  CYS307      0.1712
     22  C        104.9090  128.9590  102.7670 C.2   307  CYS307      0.2296
     23  O        104.6580  128.1340  101.8910 O.2   307  CYS307     -0.2864
     24  CB       106.7410  128.6800  104.3680 C.3   307  CYS307      0.0983
     25  SG       108.4820  128.7510  104.7190 S.3   307  CYS307     -0.0798
     26  N        108.9510  132.3880   98.2070 N.3   345  TRP345     -0.1241
     27  CA       109.8170  131.4580   98.9120 C.3   345  TRP345      0.1605
     28  C        109.9370  130.1360   98.1410 C.2   345  TRP345      0.2264
     29  O        109.0360  129.7520   97.3960 O.2   345  TRP345     -0.2867
     30  CB       109.2400  131.1870  100.3080 C.3   345  TRP345      0.0550
     31  CG       110.0580  130.2530  101.1740 C.ar  345  TRP345      0.0003
     32  CD1      110.9730  130.6040  102.1310 C.ar  345  TRP345      0.0946
     33  CD2      109.9900  128.8160  101.1940 C.ar  345  TRP345      0.0152
     34  NE1      111.4730  129.4780  102.7500 N.ar  345  TRP345     -0.2442
     35  CE2      110.8890  128.3680  102.1950 C.ar  345  TRP345      0.0810
     36  CE3      109.2580  127.8660  100.4640 C.ar  345  TRP345      0.0012
     37  CZ2      111.0740  127.0050  102.4860 C.ar  345  TRP345      0.0191
     38  CZ3      109.4420  126.5100  100.7540 C.ar  345  TRP345      0.0001
     39  CH2      110.3440  126.0940  101.7590 C.ar  345  TRP345      0.0015
     40  N        112.2780  119.9030  109.6330 N.3   380  TRP380     -0.1241
     41  CA       111.6480  120.9070  108.7740 C.3   380  TRP380      0.1605
     42  C        110.3050  120.3550  108.2930 C.2   380  TRP380      0.2264
     43  O        109.2460  120.7690  108.7620 O.2   380  TRP380     -0.2867
     44  CB       112.5380  121.2570  107.5700 C.3   380  TRP380      0.0550
     45  CG       111.9720  122.3420  106.6780 C.ar  380  TRP380      0.0003
     46  CD1      111.8280  122.2930  105.3220 C.ar  380  TRP380      0.0946
     47  CD2      111.4960  123.6370  107.0840 C.ar  380  TRP380      0.0152
     48  NE1      111.2920  123.4720  104.8550 N.ar  380  TRP380     -0.2442
     49  CE2      111.0790  124.3140  105.9150 C.ar  380  TRP380      0.0810
     50  CE3      111.3820  124.2910  108.3220 C.ar  380  TRP380      0.0012
     51  CZ2      110.5540  125.6180  105.9450 C.ar  380  TRP380      0.0191
     52  CZ3      110.8590  125.5900  108.3510 C.ar  380  TRP380      0.0001
     53  CH2      110.4530  126.2360  107.1690 C.ar  380  TRP380      0.0015
     54  N        113.3760  133.6720   96.8240 N.3   414  LYS414     -0.1245
     55  CA       114.0880  133.5920   98.0880 C.3   414  LYS414      0.1561
     56  C        114.4780  132.1090   98.1820 C.2   414  LYS414      0.2260
     57  O        113.6340  131.2560   98.4770 O.2   414  LYS414     -0.2867
     58  CB       113.1720  133.9480   99.2540 C.3   414  LYS414      0.0271
     59  CG       113.7860  133.8000  100.6480 C.3   414  LYS414      0.0035
     60  CD       112.7070  134.0570  101.6970 C.3   414  LYS414      0.0206
     61  CE       113.2270  134.0920  103.1270 C.3   414  LYS414      0.1093
     62  NZ       112.1100  134.4120  104.0900 N.3   414  LYS414     -0.1314
     63  N        115.7420  129.7400  100.1710 N.3   416  ASP416     -0.1225
     64  CA       116.0170  129.4690  101.5670 C.3   416  ASP416      0.1805
     65  C        116.7360  128.1120  101.7200 C.2   416  ASP416      0.2597
     66  O        116.8920  127.3690  100.7510 O.2   416  ASP416     -0.2718
     67  CB       114.6980  129.4970  102.3480 C.3   416  ASP416      0.1424
     68  CG       114.8990  129.7780  103.8150 C.2   416  ASP416      0.3668
     69  OD1      116.0720  129.8340  104.2380 O.co2 416  ASP416     -0.2456
     70  OD2      113.8910  129.9410  104.5460 O.co2 416  ASP416     -0.2456
     71  N        117.1980  127.8230  102.9290 N.am  417  PHE417     -0.1976
     72  CA       117.8980  126.5720  103.2370 C.3   417  PHE417      0.1639
     73  C        118.9820  126.1690  102.2370 C.2   417  PHE417      0.2290
     74  O        119.5430  127.0160  101.5400 O.2   417  PHE417     -0.2864
     75  CB       116.8770  125.4300  103.3970 C.3   417  PHE417      0.0560
     76  CG       115.8110  125.7270  104.4080 C.ar  417  PHE417     -0.0200
     77  CD1      114.7430  126.5630  104.0870 C.ar  417  PHE417     -0.0042
     78  CD2      115.9040  125.2310  105.7000 C.ar  417  PHE417     -0.0042
     79  CE1      113.7870  126.9000  105.0370 C.ar  417  PHE417     -0.0003
     80  CE2      114.9440  125.5670  106.6650 C.ar  417  PHE417     -0.0003
     81  CZ       113.8860  126.4040  106.3280 C.ar  417  PHE417     -0.0000
     82  N        119.9680  132.2810  101.3840 N.3   466  ARG466     -0.1245
     83  CA       120.3720  132.0770  102.7720 C.3   466  ARG466      0.1563
     84  C        121.7050  131.3430  102.9140 C.2   466  ARG466      0.2260
     85  O        122.4000  131.5070  103.9140 O.2   466  ARG466     -0.2867
     86  CB       119.3070  131.3120  103.5670 C.3   466  ARG466      0.0307
     87  CG       119.5560  131.3860  105.0590 C.3   466  ARG466      0.0489
     88  CD       118.4790  130.7180  105.8910 C.3   466  ARG466      0.2205
     89  NE       118.6400  129.2640  105.9390 N.pl3 466  ARG466     -0.0865
     90  CZ       117.9940  128.4740  106.7910 C.cat 466  ARG466      0.5346
     91  NH1      117.1390  128.9900  107.6670 N.pl3 466  ARG466      0.1354
     92  NH2      118.2140  127.1660  106.7810 N.pl3 466  ARG466      0.1354
     93  N        120.9680  137.0190  102.4890 N.3   479  TRP479     -0.1241
     94  CA       120.4820  137.6770  103.6840 C.3   479  TRP479      0.1605
     95  C        120.9230  136.9450  104.9390 C.2   479  TRP479      0.2264
     96  O        121.0320  135.7320  104.9490 O.2   479  TRP479     -0.2867
     97  CB       118.9580  137.8460  103.5890 C.3   479  TRP479      0.0550
     98  CG       118.1450  136.9410  104.4180 C.ar  479  TRP479      0.0003
     99  CD1      117.7320  137.1520  105.6990 C.ar  479  TRP479      0.0946
    100  CD2      117.6300  135.6690  104.0300 C.ar  479  TRP479      0.0152
    101  NE1      116.9840  136.0870  106.1370 N.ar  479  TRP479     -0.2442
    102  CE2      116.9080  135.1600  105.1310 C.ar  479  TRP479      0.0810
    103  CE3      117.7060  134.9080  102.8560 C.ar  479  TRP479      0.0012
    104  CZ2      116.2660  133.9250  105.0960 C.ar  479  TRP479      0.0191
    105  CZ3      117.0640  133.6760  102.8180 C.ar  479  TRP479      0.0001
    106  CH2      116.3540  133.1970  103.9350 C.ar  479  TRP479      0.0015
    107  N        117.9830  133.8860  110.2950 N.3   482  ASP482     -0.1239
    108  CA       117.0860  134.0480  111.4420 C.3   482  ASP482      0.1674
    109  C        117.6990  134.6350  112.7100 C.2   482  ASP482      0.2266
    110  O        118.2190  133.9050  113.5580 O.2   482  ASP482     -0.2867
    111  CB       116.4290  132.7020  111.7920 C.3   482  ASP482      0.1410
    112  CG       115.8680  131.9840  110.5720 C.2   482  ASP482      0.3668
    113  OD1      115.4980  132.6740  109.5970 O.co2 482  ASP482     -0.2456
    114  OD2      115.7870  130.7310  110.5920 O.co2 482  ASP482     -0.2456
    115  N        113.9000  138.3760  113.2650 N.3   515  PHE515     -0.1241
    116  CA       113.0920  137.2570  112.8030 C.3   515  PHE515      0.1605
    117  C        112.3070  136.6710  113.9780 C.2   515  PHE515      0.2264
    118  O        111.0890  136.8550  114.0890 O.2   515  PHE515     -0.2867
    119  CB       114.0240  136.2080  112.1780 C.3   515  PHE515      0.0534
    120  CG       113.3180  135.0120  111.6100 C.ar  515  PHE515     -0.0203
    121  CD1      113.1250  133.8670  112.3810 C.ar  515  PHE515     -0.0042
    122  CD2      112.8560  135.0240  110.2950 C.ar  515  PHE515     -0.0042
    123  CE1      112.4820  132.7460  111.8480 C.ar  515  PHE515     -0.0003
    124  CE2      112.2130  133.9130  109.7530 C.ar  515  PHE515     -0.0003
    125  CZ       112.0260  132.7700  110.5310 C.ar  515  PHE515     -0.0000
    126  N        110.7550  141.3110  107.4590 N.3   540  HIS540     -0.1241
    127  CA       110.3610  139.8920  107.5360 C.3   540  HIS540      0.1621
    128  C        110.3450  139.4450  108.9980 C.2   540  HIS540      0.2264
    129  O        111.2780  139.7340  109.7520 O.2   540  HIS540     -0.2867
    130  CB       111.3750  139.0420  106.7420 C.3   540  HIS540      0.0745
    131  CG       111.0470  137.5770  106.6640 C.ar  540  HIS540      0.0817
    132  ND1      109.9800  137.0850  105.9430 N.ar  540  HIS540     -0.2268
    133  CD2      111.6940  136.4920  107.1570 C.ar  540  HIS540      0.1154
    134  CE1      109.9850  135.7640  105.9900 C.ar  540  HIS540      0.1986
    135  NE2      111.0160  135.3780  106.7200 N.ar  540  HIS540     -0.2212
@<TRIPOS>BOND
     1    54    55    1
     2    29    28    2
     3    55    56    1
     4    55    58    1
     5    28    27    1
     6    56    57    2
     7    26    27    1
     8    27    30    1
     9    58    59    1
    10    63    64    1
    11    30    31    1
    12    36    38   ar
    13    36    33   ar
    14    59    60    1
    15    66    65    2
    16    38    39   ar
    17    31    33   ar
    18    31    32   ar
    19    33    35   ar
    20    82    83    1
    21    15    14    2
    22    74    73    2
    23    64    65    1
    24    64    67    1
    25    60    61    1
    26    65    71   am
    27    12    13    1
    28    39    37   ar
    29    23    22    2
    30    32    34   ar
    31    35    37   ar
    32    35    34   ar
    33    73    72    1
    34    14    13    1
    35    14    20   am
    36    67    68    1
    37    13    16    1
    38    93    94    1
    39    22    21    1
    40    83    84    1
    41    83    86    1
    42   105   103   ar
    43   105   106   ar
    44   103   100   ar
    45    84    85    2
    46    71    72    1
    47    21    20    1
    48    21    24    1
    49    61    62    1
    50    72    75    1
    51    75    76    1
    52    86    87    1
    53    97    94    1
    54    97    98    1
    55    94    95    1
    56    68    69   ar
    57    68    70   ar
    58    18    17   ar
    59    16    17    1
    60   106   104   ar
    61   100    98   ar
    62   100   102   ar
    63    77    76   ar
    64    77    79   ar
    65    24    25    1
    66    76    78   ar
    67    98    99   ar
    68    17    19   ar
    69    48    46   ar
    70    48    49   ar
    71    95    96    2
    72    79    81   ar
    73    87    88    1
    74   104   102   ar
    75   102   101   ar
    76    46    45   ar
    77    99   101   ar
    78    78    80   ar
    79    88    89    1
    80    49    51   ar
    81    49    47   ar
    82    89    90    2
    83   132   134   ar
    84   132   131   ar
    85    51    53   ar
    86   134   135   ar
    87    81    80   ar
    88   131   130    1
    89   131   133   ar
    90    45    47   ar
    91    45    44    1
    92   135   133   ar
    93   130   127    1
    94    92    90    1
    95    90    91    1
    96    47    50   ar
    97    53    52   ar
    98   126   127    1
    99   127   128    1
   100    44    41    1
   101     4     3    2
   102     7     9   ar
   103     7     6   ar
   104     9    11   ar
   105    42    43    2
   106    42    41    1
   107    50    52   ar
   108     2     1    1
   109     2     3    1
   110     2     5    1
   111    41    40    1
   112   128   129    2
   113     6     5    1
   114     6     8   ar
   115    11    10   ar
   116   113   112   ar
   117   124   122   ar
   118   124   125   ar
   119   107   108    1
   120   122   120   ar
   121     8    10   ar
   122   125   123   ar
   123   112   114   ar
   124   112   111    1
   125   108   111    1
   126   108   109    1
   127   120   119    1
   128   120   121   ar
   129   123   121   ar
   130   119   116    1
   131   109   110    2
   132   116   115    1
   133   116   117    1
   134   117   118    2
