@<TRIPOS>MOLECULE
tmp/1xt8A00.pdb
 97 90 0 0 0
SMALL
GASTEIGER

@<TRIPOS>ATOM
      1  N        -18.5660   83.7950  -28.2470 N.3    18  PHE18      -0.1241
      2  CA       -18.0970   84.4650  -27.0290 C.3    18  PHE18       0.1605
      3  C        -19.1420   85.4960  -26.5850 C.2    18  PHE18       0.2264
      4  O        -19.7660   86.1490  -27.4090 O.2    18  PHE18      -0.2867
      5  CB       -16.7310   85.1250  -27.2220 C.3    18  PHE18       0.0534
      6  CG       -15.5740   84.1600  -27.1860 C.ar   18  PHE18      -0.0203
      7  CD1      -14.8090   83.9170  -28.3230 C.ar   18  PHE18      -0.0042
      8  CD2      -15.2420   83.4930  -26.0110 C.ar   18  PHE18      -0.0042
      9  CE1      -13.7250   83.0110  -28.3020 C.ar   18  PHE18      -0.0003
     10  CE2      -14.1800   82.6050  -25.9700 C.ar   18  PHE18      -0.0003
     11  CZ       -13.4060   82.3610  -27.1260 C.ar   18  PHE18      -0.0000
     12  N        -15.5580   88.5680  -25.7010 N.3    21  LYS21      -0.1245
     13  CA       -14.3690   88.8740  -26.4870 C.3    21  LYS21       0.1561
     14  C        -14.6950   89.8350  -27.6250 C.2    21  LYS21       0.2260
     15  O        -14.6920   89.4510  -28.7950 O.2    21  LYS21      -0.2867
     16  CB       -13.7500   87.5900  -27.0440 C.3    21  LYS21       0.0271
     17  CG       -12.4830   87.8110  -27.8540 C.3    21  LYS21       0.0035
     18  CD       -12.1590   86.6010  -28.7130 C.3    21  LYS21       0.0206
     19  CE       -10.6610   86.4630  -28.9310 C.3    21  LYS21       0.1093
     20  NZ       -10.3220   85.2380  -29.7060 N.3    21  LYS21      -0.1314
     21  N        -15.4010   74.8450  -26.1010 N.3    65  ARG65      -0.1245
     22  CA       -15.9160   74.9240  -27.4800 C.3    65  ARG65       0.1563
     23  C        -16.0470   73.5400  -28.1240 C.2    65  ARG65       0.2260
     24  O        -17.1370   73.1470  -28.5800 O.2    65  ARG65      -0.2867
     25  CB       -15.0200   75.8570  -28.3240 C.3    65  ARG65       0.0307
     26  CG       -15.1310   77.3170  -27.8860 C.3    65  ARG65       0.0489
     27  CD       -14.1640   78.2540  -28.5260 C.3    65  ARG65       0.2205
     28  NE       -12.8130   78.0870  -28.0180 N.pl3  65  ARG65      -0.0865
     29  CZ       -11.7920   78.8840  -28.3140 C.cat  65  ARG65       0.5346
     30  NH1      -11.9410   79.8950  -29.1270 N.pl3  65  ARG65       0.1354
     31  NH2      -10.6030   78.6440  -27.7960 N.pl3  65  ARG65       0.1354
     32  N        -14.7600   82.8510  -31.9750 N.3    80  ASN80      -0.1240
     33  CA       -13.4460   83.2060  -32.5140 C.3    80  ASN80       0.1653
     34  C        -12.4070   82.1080  -32.2920 C.2    80  ASN80       0.2266
     35  O        -11.4880   82.2410  -31.4710 O.2    80  ASN80      -0.2867
     36  CB       -13.0160   84.5450  -31.9100 C.3    80  ASN80       0.1155
     37  CG       -12.2360   85.3990  -32.8640 C.2    80  ASN80       0.2627
     38  OD1      -12.7000   85.7380  -33.9620 O.2    80  ASN80      -0.2716
     39  ND2      -11.0600   85.7740  -32.4550 N.am   80  ASN80      -0.0877
     40  N         -9.5730   79.3710  -33.2210 N.3    82  THR82      -0.1218
     41  CA        -8.3630   79.0800  -33.9860 C.3    82  THR82       0.1862
     42  C         -8.2600   77.6200  -34.4120 C.2    82  THR82       0.2287
     43  O         -8.4040   76.6930  -33.6110 O.2    82  THR82      -0.2866
     44  CB        -7.0790   79.4510  -33.2100 C.3    82  THR82       0.1770
     45  OG1       -7.1240   80.8290  -32.8370 O.3    82  THR82      -0.2211
     46  CG2       -5.8390   79.2150  -34.0680 C.3    82  THR82       0.0375
     47  N         -7.0160   70.3880  -32.4840 N.3    87  ARG87      -0.1245
     48  CA        -8.4750   70.5420  -32.4410 C.3    87  ARG87       0.1563
     49  C         -9.1470   69.8540  -33.6320 C.2    87  ARG87       0.2260
     50  O        -10.2640   69.3820  -33.5190 O.2    87  ARG87      -0.2867
     51  CB        -8.8480   72.0210  -32.3970 C.3    87  ARG87       0.0307
     52  CG        -8.4130   72.7080  -31.1100 C.3    87  ARG87       0.0489
     53  CD        -8.4800   74.2100  -31.2230 C.3    87  ARG87       0.2205
     54  NE        -8.3250   74.8530  -29.9220 N.pl3  87  ARG87      -0.0865
     55  CZ        -8.2290   76.1650  -29.7320 C.cat  87  ARG87       0.5346
     56  NH1       -8.2950   77.0000  -30.7620 N.pl3  87  ARG87       0.1354
     57  NH2       -8.0750   76.6480  -28.5040 N.pl3  87  ARG87       0.1354
     58  N         -7.4740   78.8700  -24.3280 N.3   129  THR129     -0.1203
     59  CA        -7.0980   79.6050  -25.5190 C.3   129  THR129      0.1994
     60  C         -5.7790   79.0290  -26.0750 C.2   129  THR129      0.2618
     61  O         -5.1110   78.2390  -25.4120 O.2   129  THR129     -0.2717
     62  CB        -6.9490   81.1100  -25.1950 C.3   129  THR129      0.1784
     63  OG1       -5.9820   81.2780  -24.1560 O.3   129  THR129     -0.2211
     64  CG2       -8.2720   81.6900  -24.7090 C.3   129  THR129      0.0376
     65  N         -5.4150   79.4160  -27.2940 N.am  130  THR130     -0.1952
     66  CA        -4.1460   79.0220  -27.8950 C.3   130  THR130      0.1897
     67  C         -2.9050   79.6010  -27.1580 C.2   130  THR130      0.2313
     68  O         -1.8400   78.9780  -27.1220 O.2   130  THR130     -0.2863
     69  CB        -4.1060   79.4560  -29.3650 C.3   130  THR130      0.1794
     70  OG1       -4.7720   80.7170  -29.4770 O.3   130  THR130     -0.2208
     71  CG2       -4.8160   78.4420  -30.2550 C.3   130  THR130      0.0378
     72  N         -2.6560   86.4400  -25.3120 N.3   167  HIS167     -0.1226
     73  CA        -3.9120   86.1100  -25.9850 C.3   167  HIS167      0.1752
     74  C         -3.6710   86.3740  -27.4720 C.2   167  HIS167      0.2596
     75  O         -2.5330   86.6620  -27.8630 O.2   167  HIS167     -0.2718
     76  CB        -5.0620   86.9770  -25.4370 C.3   167  HIS167      0.0759
     77  CG        -6.4100   86.3100  -25.4650 C.ar  167  HIS167      0.0818
     78  ND1       -7.3550   86.5100  -24.4820 N.ar  167  HIS167     -0.2268
     79  CD2       -6.9720   85.4540  -26.3500 C.ar  167  HIS167      0.1154
     80  CE1       -8.4420   85.8130  -24.7670 C.ar  167  HIS167      0.1986
     81  NE2       -8.2350   85.1670  -25.8990 N.ar  167  HIS167     -0.2212
     82  N         -4.7190   86.2390  -28.2800 N.am  168  ASP168     -0.1974
     83  CA        -4.7150   86.5970  -29.6840 C.3   168  ASP168      0.1709
     84  C         -4.2630   88.0310  -29.8060 C.2   168  ASP168      0.2293
     85  O         -4.7780   88.8800  -29.1010 O.2   168  ASP168     -0.2864
     86  CB        -6.1250   86.4880  -30.2620 C.3   168  ASP168      0.1436
     87  CG        -6.5670   85.0530  -30.4960 C.2   168  ASP168      0.3671
     88  OD1       -5.7690   84.1040  -30.3010 O.co2 168  ASP168     -0.2456
     89  OD2       -7.7400   84.8790  -30.8660 O.co2 168  ASP168     -0.2456
     90  N         -8.6280   81.7970  -37.8830 N.3   195  ILE195     -0.1245
     91  CA        -9.9140   81.5290  -37.2390 C.3   195  ILE195      0.1561
     92  C        -10.8870   80.9300  -38.2640 C.2   195  ILE195      0.2260
     93  O        -10.9490   81.3870  -39.4230 O.2   195  ILE195     -0.2867
     94  CB       -10.5510   82.8520  -36.7320 C.3   195  ILE195      0.0252
     95  CG1       -9.6130   83.5780  -35.7440 C.3   195  ILE195      0.0019
     96  CG2      -11.9300   82.6100  -36.1470 C.3   195  ILE195      0.0019
     97  CD1       -9.1490   82.7510  -34.5850 C.3   195  ILE195      0.0001
@<TRIPOS>BOND
     1    93    92    2
     2    92    91    1
     3    90    91    1
     4    91    94    1
     5    94    96    1
     6    94    95    1
     7    95    97    1
     8    42    41    1
     9    42    43    2
    10    46    44    1
    11    41    40    1
    12    41    44    1
    13    38    37    2
    14    49    50    2
    15    49    48    1
    16    44    45    1
    17    37    39   am
    18    37    36    1
    19    33    34    1
    20    33    32    1
    21    33    36    1
    22    47    48    1
    23    48    51    1
    24    51    52    1
    25    34    35    2
    26    53    52    1
    27    53    54    1
    28    89    87   ar
    29    56    55    1
    30    87    88   ar
    31    87    86    1
    32    86    83    1
    33    71    69    1
    34    54    55    2
    35    84    83    1
    36    84    85    2
    37    55    57    1
    38    20    19    1
    39    83    82    1
    40    70    69    1
    41    69    66    1
    42    30    29    1
    43    19    18    1
    44    15    14    2
    45    18    17    1
    46    24    23    2
    47    27    28    1
    48    27    26    1
    49    25    26    1
    50    25    22    1
    51     7     9   ar
    52     7     6   ar
    53    29    28    2
    54    29    31    1
    55     9    11   ar
    56    82    74   am
    57     1     2    1
    58    23    22    1
    59    66    65    1
    60    66    67    1
    61    75    74    2
    62    17    16    1
    63    14    13    1
    64    22    21    1
    65    74    73    1
    66     4     3    2
    67    65    60   am
    68     5     6    1
    69     5     2    1
    70     6     8   ar
    71    67    68    2
    72    11    10   ar
    73    16    13    1
    74     2     3    1
    75    13    12    1
    76    79    81   ar
    77    79    77   ar
    78    60    59    1
    79    60    61    2
    80     8    10   ar
    81    73    76    1
    82    73    72    1
    83    81    80   ar
    84    59    62    1
    85    59    58    1
    86    77    76    1
    87    77    78   ar
    88    62    64    1
    89    62    63    1
    90    80    78   ar
