@<TRIPOS>MOLECULE
tmp/1xtjA00.pdb
 156 152 0 0 0
SMALL
GASTEIGER

@<TRIPOS>ATOM
      1  N        -14.1770  -10.7720   18.1300 N.3     3  PHE3       -0.1241
      2  CA       -13.9710  -11.2100   16.7560 C.3     3  PHE3        0.1605
      3  C        -14.8930  -12.3930   16.4830 C.2     3  PHE3        0.2264
      4  O        -15.0720  -12.8140   15.3420 O.2     3  PHE3       -0.2867
      5  CB       -12.5180  -11.6310   16.5300 C.3     3  PHE3        0.0534
      6  CG       -11.5490  -10.4890   16.5160 C.ar    3  PHE3       -0.0203
      7  CD1      -11.0080  -10.0030   17.6960 C.ar    3  PHE3       -0.0042
      8  CD2      -11.1810   -9.8910   15.3240 C.ar    3  PHE3       -0.0042
      9  CE1      -10.1140   -8.9380   17.6850 C.ar    3  PHE3       -0.0003
     10  CE2      -10.2860   -8.8210   15.3120 C.ar    3  PHE3       -0.0003
     11  CZ        -9.7560   -8.3480   16.4900 C.ar    3  PHE3       -0.0000
     12  N         -2.4270  -11.5050   20.6860 N.3    20  GLY20      -0.1210
     13  CA        -2.7550  -10.6110   21.7770 C.3    20  GLY20       0.1956
     14  C         -3.9100   -9.6710   21.5130 C.2    20  GLY20       0.2612
     15  O         -4.1010   -8.7030   22.2470 O.2    20  GLY20      -0.2717
     16  N         -4.6720   -9.9250   20.4590 N.am   21  PHE21      -0.1962
     17  CA        -5.8160   -9.0740   20.1810 C.3    21  PHE21       0.1771
     18  C         -6.9490   -9.5650   21.0670 C.2    21  PHE21       0.2619
     19  O         -7.2710  -10.7560   21.0820 O.2    21  PHE21      -0.2715
     20  CB        -6.2300   -9.1550   18.7060 C.3    21  PHE21       0.0574
     21  CG        -5.2170   -8.5840   17.7530 C.ar   21  PHE21      -0.0200
     22  CD1       -5.5300   -8.4320   16.4060 C.ar   21  PHE21      -0.0042
     23  CD2       -3.9450   -8.2190   18.1890 C.ar   21  PHE21      -0.0042
     24  CE1       -4.5940   -7.9290   15.5020 C.ar   21  PHE21      -0.0003
     25  CE2       -2.9990   -7.7130   17.2920 C.ar   21  PHE21      -0.0003
     26  CZ        -3.3270   -7.5690   15.9450 C.ar   21  PHE21      -0.0000
     27  N         -7.5370   -8.6510   21.8250 N.am   22  GLU22      -0.1963
     28  CA        -8.6360   -9.0050   22.7040 C.3    22  GLU22       0.1733
     29  C         -9.9330   -8.5470   22.0830 C.2    22  GLU22       0.2616
     30  O        -10.9090   -9.2880   22.0540 O.2    22  GLU22      -0.2715
     31  CB        -8.4720   -8.3440   24.0740 C.3    22  GLU22       0.0429
     32  CG        -7.3940   -8.9480   24.9610 C.3    22  GLU22       0.1163
     33  CD        -7.5430   -8.5120   26.4110 C.2    22  GLU22       0.3649
     34  OE1       -8.6670   -8.6400   26.9550 O.co2  22  GLU22      -0.2457
     35  OE2       -6.5420   -8.0460   27.0020 O.co2  22  GLU22      -0.2457
     36  N         -9.9260   -7.3160   21.5830 N.am   23  HIS23      -0.1960
     37  CA       -11.1050   -6.7280   20.9630 C.3    23  HIS23       0.1772
     38  C        -10.8170   -6.0110   19.6430 C.2    23  HIS23       0.2462
     39  O         -9.7460   -5.4410   19.4470 O.2    23  HIS23      -0.2730
     40  CB       -11.7700   -5.7750   21.9550 C.3    23  HIS23       0.0785
     41  CG       -12.5060   -6.4800   23.0460 C.ar   23  HIS23       0.0821
     42  ND1      -12.7270   -5.9170   24.2840 N.ar   23  HIS23      -0.2267
     43  CD2      -13.0880   -7.7030   23.0790 C.ar   23  HIS23       0.1154
     44  CE1      -13.4130   -6.7630   25.0320 C.ar   23  HIS23       0.1986
     45  NE2      -13.6460   -7.8550   24.3250 N.ar   23  HIS23      -0.2212
     46  N        -11.7820   -6.0440   18.7150 N.am   24  PRO24      -0.2716
     47  CA       -11.6580   -5.4060   17.4020 C.3    24  PRO24       0.1536
     48  C        -11.7150   -3.8860   17.4880 C.2    24  PRO24       0.2599
     49  O        -12.3730   -3.3290   18.3680 O.2    24  PRO24      -0.2715
     50  CB       -12.8530   -5.9680   16.6290 C.3    24  PRO24       0.0310
     51  CG       -13.1490   -7.2710   17.3230 C.3    24  PRO24       0.0237
     52  CD       -12.9750   -6.9010   18.7670 C.3    24  PRO24       0.0939
     53  N        -11.0290   -3.2120   16.5720 N.am   25  SER25      -0.1950
     54  CA       -11.0460   -1.7540   16.5560 C.3    25  SER25       0.1924
     55  C        -12.2470   -1.2760   15.7310 C.2    25  SER25       0.2314
     56  O        -12.8650   -2.0560   15.0070 O.2    25  SER25      -0.2863
     57  CB        -9.7470   -1.2100   15.9630 C.3    25  SER25       0.2116
     58  OG        -9.6310   -1.5170   14.5900 O.3    25  SER25      -0.2180
     59  N        -12.3940   -2.2470   12.3530 N.3    28  GLN28      -0.1245
     60  CA       -12.5330   -3.6850   12.2340 C.3    28  GLN28       0.1566
     61  C        -14.0100   -4.0810   12.3130 C.2    28  GLN28       0.2260
     62  O        -14.4320   -5.0530   11.6840 O.2    28  GLN28      -0.2867
     63  CB       -11.7220   -4.3800   13.3210 C.3    28  GLN28       0.0367
     64  CG       -10.3740   -4.8900   12.8320 C.3    28  GLN28       0.0905
     65  CD        -9.2310   -4.5740   13.7820 C.2    28  GLN28       0.2608
     66  OE1       -9.3990   -4.5840   14.9950 O.2    28  GLN28      -0.2717
     67  NE2       -8.0580   -4.3070   13.2270 N.am   28  GLN28      -0.0878
     68  N         -3.9390    6.6600   10.1900 N.3    47  SER47      -0.1202
     69  CA        -2.9270    5.6380   10.4430 C.3    47  SER47       0.2020
     70  C         -2.9960    4.9600   11.8170 C.2    47  SER47       0.2619
     71  O         -3.4720    5.5400   12.7940 O.2    47  SER47      -0.2717
     72  CB        -1.5350    6.2390   10.2370 C.3    47  SER47       0.2103
     73  OG        -0.5190    5.3310   10.6410 O.3    47  SER47      -0.2182
     74  N         -2.5080    3.7230   11.8800 N.am   48  GLY48      -0.1942
     75  CA        -2.5190    2.9690   13.1230 C.3    48  GLY48       0.2014
     76  C         -3.9050    2.5910   13.6070 C.2    48  GLY48       0.2639
     77  O         -4.0610    1.9610   14.6550 O.2    48  GLY48      -0.2714
     78  N         -4.9140    2.9570   12.8260 N.am   49  MET49      -0.1963
     79  CA        -6.3050    2.6910   13.1780 C.3    49  MET49       0.1736
     80  C         -6.7230    1.2210   13.1510 C.2    49  MET49       0.2617
     81  O         -7.7690    0.8760   13.6990 O.2    49  MET49      -0.2715
     82  CB        -7.2250    3.5050   12.2700 C.3    49  MET49       0.0427
     83  CG        -8.5510    3.8070   12.8930 C.3    49  MET49       0.0599
     84  SD        -8.3820    4.8800   14.3340 S.3    49  MET49      -0.1393
     85  CE        -9.7780    5.9820   14.0210 C.3    49  MET49       0.0692
     86  N         -5.9130    0.3760   12.5020 N.am   50  GLY50      -0.1940
     87  CA        -6.1720   -1.0640   12.4190 C.3    50  GLY50       0.2014
     88  C         -6.6530   -1.6180   11.0820 C.2    50  GLY50       0.2639
     89  O         -7.4020   -2.5910   11.0380 O.2    50  GLY50      -0.2714
     90  N         -6.2010   -1.0330    9.9840 N.am   51  LYS51      -0.1963
     91  CA        -6.6560   -1.4620    8.6670 C.3    51  LYS51       0.1728
     92  C         -6.1010   -2.7740    8.0880 C.2    51  LYS51       0.2617
     93  O         -6.8790   -3.5880    7.5780 O.2    51  LYS51      -0.2715
     94  CB        -6.4340   -0.3260    7.6580 C.3    51  LYS51       0.0311
     95  CG        -7.1440    0.9770    8.0210 C.3    51  LYS51       0.0038
     96  CD        -6.9090    2.0600    6.9600 C.3    51  LYS51       0.0206
     97  CE        -5.4700    2.5840    6.9390 C.3    51  LYS51       0.1093
     98  NZ        -5.1060    3.3260    8.2010 N.3    51  LYS51      -0.1314
     99  N         -4.7870   -2.9910    8.1530 N.am   52  THR52      -0.1937
    100  CA        -4.2130   -4.2100    7.5710 C.3    52  THR52       0.2028
    101  C         -4.8980   -5.4820    8.0770 C.2    52  THR52       0.2642
    102  O         -5.1810   -6.3980    7.3020 O.2    52  THR52      -0.2714
    103  CB        -2.6710   -4.3210    7.8200 C.3    52  THR52       0.1808
    104  OG1       -2.4220   -4.9000    9.1040 O.3    52  THR52      -0.2208
    105  CG2       -2.0160   -2.9520    7.7540 C.3    52  THR52       0.0379
    106  N         -5.1600   -5.5400    9.3750 N.am   53  ALA53      -0.1977
    107  CA        -5.8360   -6.6920    9.9400 C.3    53  ALA53       0.1597
    108  C         -7.1040   -6.9940    9.1430 C.2    53  ALA53       0.2287
    109  O         -7.4050   -8.1490    8.8730 O.2    53  ALA53      -0.2864
    110  CB        -6.1920   -6.4270   11.3940 C.3    53  ALA53       0.0319
    111  N          2.3490  -10.3350    8.3810 N.3    88  GLU88      -0.1245
    112  CA         1.0130  -10.2730    8.9600 C.3    88  GLU88       0.1567
    113  C          0.2580  -11.5090    8.5190 C.2    88  GLU88       0.2260
    114  O         -0.3690  -12.1860    9.3190 O.2    88  GLU88      -0.2867
    115  CB         0.2800   -9.0140    8.4970 C.3    88  GLU88       0.0388
    116  CG         0.6890   -7.7350    9.2190 C.3    88  GLU88       0.1160
    117  CD         0.2540   -7.7190   10.6740 C.2    88  GLU88       0.3649
    118  OE1       -0.5000   -6.7970   11.0720 O.co2  88  GLU88      -0.2457
    119  OE2        0.6700   -8.6330   11.4180 O.co2  88  GLU88      -0.2457
    120  N         -3.0690   -1.3280   -0.5000 N.3   152  ASP152     -0.1225
    121  CA        -2.8870   -0.7230    0.8180 C.3   152  ASP152      0.1805
    122  C         -2.2580    0.6700    0.6510 C.2   152  ASP152      0.2597
    123  O         -1.4030    0.8790   -0.2140 O.2   152  ASP152     -0.2718
    124  CB        -2.0120   -1.6100    1.7160 C.3   152  ASP152      0.1424
    125  CG        -2.1380   -1.2540    3.2040 C.2   152  ASP152      0.3668
    126  OD1       -1.1530   -1.4250    3.9620 O.co2 152  ASP152     -0.2456
    127  OD2       -3.2290   -0.8160    3.6290 O.co2 152  ASP152     -0.2456
    128  N         -2.6980    1.6180    1.4770 N.am  153  GLU153     -0.1979
    129  CA        -2.2110    2.9890    1.4160 C.3   153  GLU153      0.1602
    130  C         -2.2860    3.4890   -0.0180 C.2   153  GLU153      0.2287
    131  O         -1.3610    4.1300   -0.5180 O.2   153  GLU153     -0.2864
    132  CB        -0.7750    3.0660    1.9260 C.3   153  GLU153      0.0415
    133  CG        -0.6100    2.7040    3.4070 C.3   153  GLU153      0.1163
    134  CD        -1.5220    3.5050    4.3270 C.2   153  GLU153      0.3649
    135  OE1       -1.7210    4.7120    4.0710 O.co2 153  GLU153     -0.2457
    136  OE2       -2.0310    2.9290    5.3150 O.co2 153  GLU153     -0.2457
    137  N          7.5580   -9.0050   15.7500 N.3   279  GLN279     -0.1245
    138  CA         6.3280   -8.8770   16.5310 C.3   279  GLN279      0.1566
    139  C          6.0880   -9.9660   17.5880 C.2   279  GLN279      0.2260
    140  O          5.8650   -9.6520   18.7560 O.2   279  GLN279     -0.2867
    141  CB         5.1240   -8.7830   15.5850 C.3   279  GLN279      0.0367
    142  CG         3.7940   -8.5060   16.2830 C.3   279  GLN279      0.0905
    143  CD         2.6620   -8.2190   15.3050 C.2   279  GLN279      0.2608
    144  OE1        1.4910   -8.1680   15.6880 O.2   279  GLN279     -0.2717
    145  NE2        3.0090   -8.0220   14.0380 N.am  279  GLN279     -0.0878
    146  N          7.9550   -9.1000   20.5580 N.3   282  ARG282     -0.1245
    147  CA         7.5760   -7.8570   21.2110 C.3   282  ARG282      0.1563
    148  C          6.4210   -8.1160   22.1610 C.2   282  ARG282      0.2260
    149  O          6.3040   -7.4700   23.1960 O.2   282  ARG282     -0.2867
    150  CB         7.1680   -6.7990   20.1790 C.3   282  ARG282      0.0307
    151  CG         8.3270   -6.2450   19.3590 C.3   282  ARG282      0.0489
    152  CD         8.0660   -4.8110   18.9070 C.3   282  ARG282      0.2205
    153  NE         7.6860   -4.6930   17.5020 N.pl3 282  ARG282     -0.0865
    154  CZ         6.5530   -5.1560   16.9820 C.cat 282  ARG282      0.5346
    155  NH1        5.6700   -5.7790   17.7500 N.pl3 282  ARG282      0.1354
    156  NH2        6.2980   -4.9850   15.6910 N.pl3 282  ARG282      0.1354
@<TRIPOS>BOND
     1   131   130    2
     2   120   121    1
     3   123   122    2
     4   130   129    1
     5   122   121    1
     6   122   128   am
     7   121   124    1
     8   129   128    1
     9   129   132    1
    10   124   125    1
    11   132   133    1
    12   125   127   ar
    13   125   126   ar
    14   133   134    1
    15   135   134   ar
    16   134   136   ar
    17    97    96    1
    18    97    98    1
    19    96    95    1
    20   102   101    2
    21   100   103    1
    22   100   101    1
    23   100    99    1
    24    93    92    2
    25    94    95    1
    26    94    91    1
    27   105   103    1
    28   103   104    1
    29   101   106   am
    30    92    99   am
    31    92    91    1
    32   111   112    1
    33   115   112    1
    34   115   116    1
    35   113   112    1
    36   113   114    2
    37    91    90    1
    38   109   108    2
    39   108   107    1
    40   116   117    1
    41   106   107    1
    42   107   110    1
    43    90    88   am
    44    68    69    1
    45    72    69    1
    46    72    73    1
    47    69    70    1
    48   117   118   ar
    49   117   119   ar
    50    89    88    2
    51    88    87    1
    52    62    61    2
    53    70    74   am
    54    70    71    2
    55    74    75    1
    56    60    61    1
    57    60    59    1
    58    60    63    1
    59    82    83    1
    60    82    79    1
    61    87    86    1
    62    86    80   am
    63    78    79    1
    64    78    76   am
    65    64    63    1
    66    64    65    1
    67    83    84    1
    68    75    76    1
    69    80    79    1
    70    80    81    2
    71    67    65   am
    72    76    77    2
    73    65    66    2
    74    85    84    1
    75   145   143   am
    76    58    57    1
    77    56    55    2
    78   143   144    2
    79   143   142    1
    80    10     8   ar
    81    10    11   ar
    82     8     6   ar
    83     4     3    2
    84    24    26   ar
    85    24    22   ar
    86   141   142    1
    87   141   138    1
    88   156   154    1
    89    55    54    1
    90   137   138    1
    91    26    25   ar
    92    57    54    1
    93    22    21   ar
    94     3     2    1
    95    11     9   ar
    96     6     5    1
    97     6     7   ar
    98     5     2    1
    99   138   139    1
   100    54    53    1
   101    53    48   am
   102    50    51    1
   103    50    47    1
   104     2     1    1
   105   154   153    2
   106   154   155    1
   107    25    23   ar
   108    51    52    1
   109    47    48    1
   110    47    46    1
   111    48    49    2
   112   153   152    1
   113   139   140    2
   114     9     7   ar
   115    21    23   ar
   116    21    20    1
   117    20    17    1
   118    46    52    1
   119    46    38   am
   120   152   151    1
   121   151   150    1
   122    39    38    2
   123    38    37    1
   124   150   147    1
   125    17    16    1
   126    17    18    1
   127    16    14   am
   128   146   147    1
   129    12    13    1
   130    37    36    1
   131    37    40    1
   132    18    19    2
   133    18    27   am
   134   147   148    1
   135    14    13    1
   136    14    15    2
   137    36    29   am
   138    27    28    1
   139    40    41    1
   140    30    29    2
   141    29    28    1
   142   148   149    2
   143    28    31    1
   144    41    43   ar
   145    41    42   ar
   146    43    45   ar
   147    31    32    1
   148    42    44   ar
   149    45    44   ar
   150    32    33    1
   151    33    34   ar
   152    33    35   ar
