@<TRIPOS>MOLECULE
tmp/1xtpA00.pdb
 196 192 0 0 0
SMALL
GASTEIGER

@<TRIPOS>ATOM
      1  N         -5.7950   -0.3450    9.4360 N.3    42  TYR42      -0.1241
      2  CA        -5.6660   -0.5040   10.8790 C.3    42  TYR42       0.1605
      3  C         -6.5620   -1.5970   11.4220 C.2    42  TYR42       0.2264
      4  O         -6.1140   -2.3980   12.2390 O.2    42  TYR42      -0.2867
      5  CB        -5.9730    0.8140   11.6160 C.3    42  TYR42       0.0534
      6  CG        -4.9090    1.8430   11.4680 C.ar   42  TYR42      -0.0201
      7  CD1       -3.6320    1.6380   12.0060 C.ar   42  TYR42      -0.0009
      8  CD2       -5.1590    3.0360   10.8130 C.ar   42  TYR42      -0.0009
      9  CE1       -2.6470    2.5910   11.8640 C.ar   42  TYR42       0.0417
     10  CE2       -4.1860    3.9950   10.6690 C.ar   42  TYR42       0.0417
     11  CZ        -2.9220    3.7650   11.1960 C.ar   42  TYR42       0.1957
     12  OH        -1.9490    4.7140   11.0650 O.3    42  TYR42      -0.2866
     13  N         -5.3920   -5.1970   11.2260 N.3    45  ALA45      -0.1231
     14  CA        -4.2570   -5.5060   12.1020 C.3    45  ALA45       0.1694
     15  C         -4.7550   -5.7870   13.5080 C.2    45  ALA45       0.2591
     16  O         -4.3040   -6.7350   14.1550 O.2    45  ALA45      -0.2718
     17  CB        -3.3130   -4.3700   12.1120 C.3    45  ALA45       0.0304
     18  N         -5.7010   -4.9580   13.9630 N.am   46  LEU46      -0.1980
     19  CA        -6.3360   -5.1060   15.2630 C.3    46  LEU46       0.1596
     20  C         -7.1420   -6.3920   15.3210 C.2    46  LEU46       0.2287
     21  O         -7.1910   -7.0410   16.3440 O.2    46  LEU46      -0.2864
     22  CB        -7.2530   -3.9100   15.5530 C.3    46  LEU46       0.0297
     23  CG        -6.5830   -2.5480   15.7150 C.3    46  LEU46       0.0022
     24  CD1       -7.6190   -1.4930   16.0630 C.3    46  LEU46       0.0001
     25  CD2       -5.4600   -2.5890   16.7620 C.3    46  LEU46       0.0001
     26  N         -4.7200   -9.2480   15.7080 N.3    49  TRP49      -0.1241
     27  CA        -4.1810   -9.3940   17.0490 C.3    49  TRP49       0.1605
     28  C         -5.1950   -9.8520   18.0660 C.2    49  TRP49       0.2264
     29  O         -4.8030  -10.3640   19.0970 O.2    49  TRP49      -0.2867
     30  CB        -3.4870   -8.1230   17.5000 C.3    49  TRP49       0.0550
     31  CG        -2.1200   -8.0550   16.9160 C.ar   49  TRP49       0.0003
     32  CD1       -1.7470   -7.3910   15.7900 C.ar   49  TRP49       0.0946
     33  CD2       -0.9500   -8.7180   17.4000 C.ar   49  TRP49       0.0152
     34  NE1       -0.4270   -7.5740   15.5620 N.ar   49  TRP49      -0.2442
     35  CE2        0.0920   -8.4000   16.5230 C.ar   49  TRP49       0.0810
     36  CE3       -0.6860   -9.5530   18.4970 C.ar   49  TRP49       0.0012
     37  CZ2        1.3950   -8.8510   16.7080 C.ar   49  TRP49       0.0191
     38  CZ3        0.6270  -10.0140   18.6840 C.ar   49  TRP49       0.0001
     39  CH2        1.6440   -9.6660   17.7870 C.ar   49  TRP49       0.0015
     40  N          3.6190  -12.4900   21.0900 N.3    59  VAL59      -0.1231
     41  CA         4.1350  -11.1830   20.7040 C.3    59  VAL59       0.1692
     42  C          5.4040  -11.3220   19.8670 C.2    59  VAL59       0.2591
     43  O          5.7330  -10.4170   19.1140 O.2    59  VAL59      -0.2718
     44  CB         4.3370  -10.1950   21.9100 C.3    59  VAL59       0.0266
     45  CG1        3.0230   -9.9650   22.6090 C.3    59  VAL59       0.0020
     46  CG2        5.3940  -10.6720   22.8830 C.3    59  VAL59       0.0020
     47  N          6.0920  -12.4570   19.9920 N.am   60  LEU60      -0.1980
     48  CA         7.3490  -12.6670   19.2980 C.3    60  LEU60       0.1596
     49  C          7.1760  -13.5370   18.0640 C.2    60  LEU60       0.2287
     50  O          8.1540  -14.0630   17.5190 O.2    60  LEU60      -0.2864
     51  CB         8.3990  -13.2550   20.2480 C.3    60  LEU60       0.0297
     52  CG         8.8740  -12.3800   21.4110 C.3    60  LEU60       0.0022
     53  CD1       10.0650  -13.0190   22.0780 C.3    60  LEU60       0.0001
     54  CD2        9.2200  -10.9660   20.9570 C.3    60  LEU60       0.0001
     55  N          5.8200    2.4600   27.1200 N.3    90  ASP90      -0.1225
     56  CA         5.9660    1.2790   26.2770 C.3    90  ASP90       0.1805
     57  C          4.7840    1.2590   25.3070 C.2    90  ASP90       0.2598
     58  O          3.6560    0.9480   25.7010 O.2    90  ASP90      -0.2718
     59  CB         5.9670    0.0690   27.1960 C.3    90  ASP90       0.1424
     60  CG         6.3420   -1.1940   26.5060 C.2    90  ASP90       0.3668
     61  OD1        6.6760   -1.1420   25.2960 O.co2  90  ASP90      -0.2456
     62  OD2        6.3030   -2.2410   27.2040 O.co2  90  ASP90      -0.2456
     63  N          5.0470    1.6690   24.0580 N.am   91  CYS91      -0.1956
     64  CA         4.0330    1.8170   23.0100 C.3    91  CYS91       0.1843
     65  C          3.8730    0.5190   22.2290 C.2    91  CYS91       0.2626
     66  O          4.8550   -0.1170   21.8690 O.2    91  CYS91      -0.2714
     67  CB         4.4400    2.8870   21.9980 C.3    91  CYS91       0.0997
     68  SG         4.6080    4.5250   22.6160 S.3    91  CYS91      -0.0797
     69  N          2.6340    0.1630   21.9200 N.am   92  GLY92      -0.1940
     70  CA         2.3520   -1.1560   21.3540 C.3    92  GLY92       0.2014
     71  C          2.9290   -2.2280   22.2720 C.2    92  GLY92       0.2639
     72  O          3.6120   -3.1330   21.8240 O.2    92  GLY92      -0.2714
     73  N          2.6280   -2.1000   23.5580 N.am   93  ALA93      -0.1963
     74  CA         3.2480   -2.8920   24.6270 C.3    93  ALA93       0.1728
     75  C          2.9290   -4.3800   24.6190 C.2    93  ALA93       0.2616
     76  O          3.6960   -5.1660   25.1640 O.2    93  ALA93      -0.2715
     77  CB         2.8640   -2.3150   25.9600 C.3    93  ALA93       0.0334
     78  N          1.7920   -4.7500   24.0210 N.am   94  GLY94      -0.1955
     79  CA         1.3360   -6.1220   24.0160 C.3    94  GLY94       0.1869
     80  C          1.0890   -6.5840   25.4330 C.2    94  GLY94       0.2309
     81  O          0.3000   -5.9750   26.1520 O.2    94  GLY94      -0.2863
     82  N          6.0530   -7.1700   27.7570 N.3    97  ARG97      -0.1231
     83  CA         7.3380   -7.8730   27.7510 C.3    97  ARG97       0.1694
     84  C          8.5530   -6.9670   27.9500 C.2    97  ARG97       0.2591
     85  O          9.4750   -7.2990   28.7350 O.2    97  ARG97      -0.2718
     86  CB         7.5020   -8.6270   26.4230 C.3    97  ARG97       0.0321
     87  CG         8.8040   -9.4550   26.3090 C.3    97  ARG97       0.0489
     88  CD         8.9680  -10.0240   24.8820 C.3    97  ARG97       0.2205
     89  NE         9.2060   -8.9410   23.9240 N.pl3  97  ARG97      -0.0865
     90  CZ        10.3940   -8.4270   23.6160 C.cat  97  ARG97       0.5346
     91  NH1       11.5160   -8.9010   24.1350 N.pl3  97  ARG97       0.1354
     92  NH2       10.4560   -7.4320   22.7490 N.pl3  97  ARG97       0.1354
     93  N          8.5890   -5.8510   27.2150 N.am   98  ILE98      -0.1980
     94  CA         9.6850   -4.9260   27.3370 C.3    98  ILE98       0.1595
     95  C          9.6610   -4.2030   28.7130 C.2    98  ILE98       0.2287
     96  O         10.7060   -4.0230   29.3560 O.2    98  ILE98      -0.2864
     97  CB         9.7180   -3.9140   26.1460 C.3    98  ILE98       0.0276
     98  CG1        9.9070   -4.6710   24.8160 C.3    98  ILE98       0.0022
     99  CG2       10.8630   -2.8780   26.3500 C.3    98  ILE98       0.0022
    100  CD1        9.6800   -3.8310   23.5710 C.3    98  ILE98       0.0001
    101  N          1.0050    1.5080   26.5640 N.3   113  LEU113     -0.1231
    102  CA         0.0360    1.9140   25.5620 C.3   113  LEU113      0.1693
    103  C         -0.1960    0.7140   24.6350 C.2   113  LEU113      0.2592
    104  O          0.7260    0.2720   23.9890 O.2   113  LEU113     -0.2718
    105  CB         0.5750    3.1160   24.7750 C.3   113  LEU113      0.0284
    106  CG        -0.3070    3.6760   23.6340 C.3   113  LEU113      0.0019
    107  CD1        0.0210    5.1220   23.3660 C.3   113  LEU113      0.0001
    108  CD2       -0.1600    2.8810   22.3420 C.3   113  LEU113      0.0001
    109  N         -1.4220    0.2110   24.5640 N.am  114  GLU114     -0.1966
    110  CA        -1.7140   -1.0000   23.8070 C.3   114  GLU114      0.1718
    111  C         -3.1840   -0.9730   23.4740 C.2   114  GLU114      0.2458
    112  O         -3.9800   -0.7270   24.3660 O.2   114  GLU114     -0.2730
    113  CB        -1.3900   -2.2200   24.6680 C.3   114  GLU114      0.0428
    114  CG        -1.9050   -3.5590   24.1490 C.3   114  GLU114      0.1163
    115  CD        -1.4360   -3.8730   22.7310 C.2   114  GLU114      0.3649
    116  OE1       -0.2260   -3.7430   22.4740 O.co2 114  GLU114     -0.2457
    117  OE2       -2.2880   -4.2160   21.8730 O.co2 114  GLU114     -0.2457
    118  N         -3.5480   -1.1450   22.1900 N.am  115  PRO115     -0.2716
    119  CA        -4.9550   -1.0800   21.7720 C.3   115  PRO115      0.1536
    120  C         -5.7600   -2.3490   21.9300 C.2   115  PRO115      0.2598
    121  O         -6.9940   -2.2890   21.9200 O.2   115  PRO115     -0.2715
    122  CB        -4.8360   -0.7470   20.2760 C.3   115  PRO115      0.0310
    123  CG        -3.5760   -1.4280   19.8680 C.3   115  PRO115      0.0237
    124  CD        -2.6520   -1.2640   21.0220 C.3   115  PRO115      0.0939
    125  N         -5.0920   -3.4940   22.0270 N.am  116  VAL116     -0.1978
    126  CA        -5.7990   -4.7740   22.1270 C.3   116  VAL116      0.1596
    127  C         -6.0510   -5.1630   23.5630 C.2   116  VAL116      0.2287
    128  O         -5.1260   -5.3480   24.3470 O.2   116  VAL116     -0.2864
    129  CB        -5.0680   -5.9050   21.3870 C.3   116  VAL116      0.0276
    130  CG1       -5.8280   -7.1960   21.5170 C.3   116  VAL116      0.0022
    131  CG2       -4.9310   -5.5110   19.9090 C.3   116  VAL116      0.0022
    132  N         -4.6290    2.8850   20.3510 N.3   137  SER137     -0.1217
    133  CA        -3.6090    2.7910   19.3130 C.3   137  SER137      0.1889
    134  C         -2.7300    4.0290   19.3720 C.2   137  SER137      0.2288
    135  O         -3.1320    5.0650   19.9080 O.2   137  SER137     -0.2866
    136  CB        -4.2650    2.6680   17.9480 C.3   137  SER137      0.2089
    137  OG        -5.1550    1.5620   17.8940 O.3   137  SER137     -0.2183
    138  N         -1.8130    5.9490   16.9770 N.3   138  GLU138     -0.1245
    139  CA        -2.3020    7.0070   16.1030 C.3   138  GLU138      0.1567
    140  C         -3.5480    7.7400   16.6360 C.2   138  GLU138      0.2260
    141  O         -3.9710    8.7520   16.0580 O.2   138  GLU138     -0.2867
    142  CB        -2.5370    6.4790   14.6700 C.3   138  GLU138      0.0388
    143  CG        -3.8190    5.6350   14.4250 C.3   138  GLU138      0.1160
    144  CD        -3.6900    4.1730   14.8580 C.2   138  GLU138      0.3649
    145  OE1       -2.5960    3.7640   15.3020 O.co2 138  GLU138     -0.2457
    146  OE2       -4.6970    3.4320   14.7710 O.co2 138  GLU138     -0.2457
    147  N          8.7460   -0.5130   19.6900 N.3   153  GLN153     -0.1231
    148  CA         9.4190   -1.7050   19.2060 C.3   153  GLN153      0.1698
    149  C          8.4320   -2.6580   18.5950 C.2   153  GLN153      0.2592
    150  O          7.4470   -3.0220   19.2440 O.2   153  GLN153     -0.2718
    151  CB        10.1580   -2.4170   20.3370 C.3   153  GLN153      0.0381
    152  CG        10.7010   -3.7910   19.9050 C.3   153  GLN153      0.0905
    153  CD        11.8700   -4.2940   20.7510 C.2   153  GLN153      0.2608
    154  OE1       12.2940   -3.6400   21.7090 O.2   153  GLN153     -0.2717
    155  NE2       12.4010   -5.4720   20.3830 N.am  153  GLN153     -0.0878
    156  N          8.7150   -3.0710   17.3590 N.am  154  TRP154     -0.1962
    157  CA         7.9060   -4.0590   16.6330 C.3   154  TRP154      0.1771
    158  C          6.4150   -3.6510   16.5340 C.2   154  TRP154      0.2620
    159  O          5.5140   -4.4870   16.5500 O.2   154  TRP154     -0.2715
    160  CB         8.0980   -5.4640   17.2330 C.3   154  TRP154      0.0590
    161  CG         9.4240   -6.1130   16.8360 C.ar  154  TRP154      0.0006
    162  CD1       10.0660   -5.9970   15.6410 C.ar  154  TRP154      0.0946
    163  CD2       10.2340   -6.9750   17.6400 C.ar  154  TRP154      0.0152
    164  NE1       11.2370   -6.7170   15.6540 N.ar  154  TRP154     -0.2442
    165  CE2       11.3620   -7.3350   16.8670 C.ar  154  TRP154      0.0810
    166  CE3       10.1170   -7.4820   18.9390 C.ar  154  TRP154      0.0012
    167  CZ2       12.3650   -8.1760   17.3460 C.ar  154  TRP154      0.0191
    168  CZ3       11.1230   -8.3150   19.4190 C.ar  154  TRP154      0.0001
    169  CH2       12.2330   -8.6530   18.6200 C.ar  154  TRP154      0.0015
    170  N          6.1760   -2.3530   16.4070 N.am  155  THR155     -0.1951
    171  CA         4.8170   -1.8360   16.4010 C.3   155  THR155      0.1897
    172  C          4.6290   -0.7160   15.3750 C.2   155  THR155      0.2313
    173  O          3.5470   -0.5580   14.8330 O.2   155  THR155     -0.2863
    174  CB         4.3840   -1.4460   17.8530 C.3   155  THR155      0.1794
    175  OG1        2.9560   -1.3310   17.9420 O.3   155  THR155     -0.2208
    176  CG2        5.0760   -0.1640   18.3180 C.3   155  THR155      0.0378
    177  N          2.6770   -1.0590   11.9220 N.3   158  TYR158     -0.1227
    178  CA         1.2210   -0.9340   11.7840 C.3   158  TYR158      0.1736
    179  C          0.7490    0.4720   11.4350 C.2   158  TYR158      0.2595
    180  O         -0.3910    0.6460   11.0230 O.2   158  TYR158     -0.2718
    181  CB         0.5360   -1.4220   13.0670 C.3   158  TYR158      0.0548
    182  CG         0.8570   -2.8610   13.3430 C.ar  158  TYR158     -0.0200
    183  CD1        0.4020   -3.8470   12.4920 C.ar  158  TYR158     -0.0009
    184  CD2        1.6780   -3.2300   14.4070 C.ar  158  TYR158     -0.0009
    185  CE1        0.7150   -5.1780   12.7000 C.ar  158  TYR158      0.0417
    186  CE2        1.9880   -4.5660   14.6510 C.ar  158  TYR158      0.0417
    187  CZ         1.5180   -5.5310   13.7720 C.ar  158  TYR158      0.1957
    188  OH         1.8130   -6.8590   13.9460 O.3   158  TYR158     -0.2866
    189  N          1.6260    1.4590   11.5960 N.am  159  LEU159     -0.1980
    190  CA         1.3080    2.8330   11.2630 C.3   159  LEU159      0.1596
    191  C          1.4180    3.1150    9.7690 C.2   159  LEU159      0.2287
    192  O          2.3580    2.6620    9.1230 O.2   159  LEU159     -0.2864
    193  CB         2.2260    3.8060   12.0200 C.3   159  LEU159      0.0297
    194  CG         2.1130    3.8750   13.5430 C.3   159  LEU159      0.0022
    195  CD1        3.3320    4.5900   14.1520 C.3   159  LEU159      0.0001
    196  CD2        0.8040    4.5660   13.9810 C.3   159  LEU159      0.0001
@<TRIPOS>BOND
     1   192   191    2
     2     1     2    1
     3   191   190    1
     4    10     8   ar
     5    10    11   ar
     6     8     6   ar
     7     2     3    1
     8     2     5    1
     9   180   179    2
    10    12    11    1
    11    11     9   ar
    12    13    14    1
    13   190   189    1
    14   190   193    1
    15     3     4    2
    16   179   189   am
    17   179   178    1
    18     6     5    1
    19     6     7   ar
    20   178   177    1
    21   178   181    1
    22     9     7   ar
    23   193   194    1
    24    14    17    1
    25    14    15    1
    26   183   185   ar
    27   183   182   ar
    28   185   187   ar
    29   181   182    1
    30   182   184   ar
    31    15    18   am
    32    15    16    2
    33   194   196    1
    34   194   195    1
    35   187   188    1
    36   187   186   ar
    37    18    19    1
    38   184   186   ar
    39   143   142    1
    40   143   144    1
    41   142   139    1
    42   146   144   ar
    43   173   172    2
    44   144   145   ar
    45    19    20    1
    46    19    22    1
    47    20    21    2
    48   172   171    1
    49    22    23    1
    50    34    32   ar
    51    34    35   ar
    52   162   164   ar
    53   162   161   ar
    54   164   165   ar
    55    26    27    1
    56    23    24    1
    57    23    25    1
    58    32    31   ar
    59   141   140    2
    60   139   140    1
    61   139   138    1
    62   171   170    1
    63   171   174    1
    64   170   158   am
    65    35    37   ar
    66    35    33   ar
    67   158   159    2
    68   158   157    1
    69   157   160    1
    70   157   156    1
    71    37    39   ar
    72   161   160    1
    73   161   163   ar
    74   165   167   ar
    75   165   163   ar
    76    31    33   ar
    77    31    30    1
    78    27    30    1
    79    27    28    1
    80   167   169   ar
    81   156   149   am
    82    33    36   ar
    83    50    49    2
    84   163   166   ar
    85    39    38   ar
    86   174   175    1
    87   174   176    1
    88   137   136    1
    89   136   133    1
    90    49    48    1
    91    28    29    2
    92    36    38   ar
    93   149   148    1
    94   149   150    2
    95   169   168   ar
    96   166   168   ar
    97    43    42    2
    98   148   147    1
    99   148   151    1
   100    48    47    1
   101    48    51    1
   102   133   134    1
   103   133   132    1
   104   134   135    2
   105    42    47   am
   106    42    41    1
   107   123   122    1
   108   123   124    1
   109   152   151    1
   110   152   153    1
   111   131   129    1
   112    51    52    1
   113   122   119    1
   114   155   153   am
   115    41    40    1
   116    41    44    1
   117   153   154    2
   118    54    52    1
   119   124   118    1
   120    70    69    1
   121    70    71    1
   122   129   130    1
   123   129   126    1
   124    52    53    1
   125   119   120    1
   126   119   118    1
   127    72    71    2
   128    66    65    2
   129   117   115   ar
   130    44    45    1
   131    44    46    1
   132    69    65   am
   133   121   120    2
   134   120   125   am
   135    67    68    1
   136    67    64    1
   137   125   126    1
   138   126   127    1
   139   118   111   am
   140    65    64    1
   141    71    73   am
   142   108   106    1
   143   116   115   ar
   144   115   114    1
   145    92    90    1
   146    64    63    1
   147   107   106    1
   148   111   110    1
   149   111   112    2
   150    73    74    1
   151   127   128    2
   152   100    98    1
   153    90    89    2
   154    90    91    1
   155   106   105    1
   156   110   109    1
   157   110   113    1
   158    89    88    1
   159   104   103    2
   160    79    78    1
   161    79    80    1
   162    78    75   am
   163    63    57   am
   164   114   113    1
   165   109   103   am
   166    75    74    1
   167    75    76    2
   168    74    77    1
   169   103   102    1
   170   105   102    1
   171    98    97    1
   172    88    87    1
   173    61    60   ar
   174    57    58    2
   175    57    56    1
   176    80    81    2
   177   102   101    1
   178    97    99    1
   179    97    94    1
   180    56    55    1
   181    56    59    1
   182    87    86    1
   183    86    83    1
   184    60    59    1
   185    60    62   ar
   186    93    94    1
   187    93    84   am
   188    94    95    1
   189    83    82    1
   190    83    84    1
   191    84    85    2
   192    95    96    2
