@<TRIPOS>MOLECULE
tmp/1xtrA00.pdb
 181 176 0 0 0
SMALL
GASTEIGER

@<TRIPOS>ATOM
      1  N         31.6450   88.6800   57.0160 N.3    14  ARG14      -0.1231
      2  CA        30.7770   89.8060   57.3540 C.3    14  ARG14       0.1694
      3  C         29.2740   89.5240   57.4500 C.2    14  ARG14       0.2593
      4  O         28.7620   88.5630   56.8740 O.2    14  ARG14      -0.2718
      5  CB        31.0420   90.9850   56.4010 C.3    14  ARG14       0.0321
      6  CG        31.1560   90.6080   54.9490 C.3    14  ARG14       0.0489
      7  CD        32.2510   91.3970   54.2500 C.3    14  ARG14       0.2205
      8  NE        32.5990   90.7560   52.9820 N.pl3  14  ARG14      -0.0865
      9  CZ        33.8090   90.7750   52.4250 C.cat  14  ARG14       0.5346
     10  NH1       34.8180   91.4160   53.0180 N.pl3  14  ARG14       0.1354
     11  NH2       34.0130   90.1280   51.2820 N.pl3  14  ARG14       0.1354
     12  N         28.5860   90.3680   58.2170 N.am   15  SER15      -0.1938
     13  CA        27.1420   90.2670   58.4190 C.3    15  SER15       0.2055
     14  C         26.6740   89.0820   59.2530 C.2    15  SER15       0.2643
     15  O         25.4860   88.9570   59.5170 O.2    15  SER15      -0.2714
     16  CB        26.4100   90.2240   57.0680 C.3    15  SER15       0.2130
     17  OG        26.5580   91.4340   56.3390 O.3    15  SER15      -0.2179
     18  N         27.5890   88.2130   59.6670 N.am   16  VAL16      -0.1963
     19  CA        27.2030   87.0360   60.4470 C.3    16  VAL16       0.1727
     20  C         26.7070   87.3690   61.8500 C.2    16  VAL16       0.2617
     21  O         26.0060   86.5660   62.4650 O.2    16  VAL16      -0.2715
     22  CB        28.3620   86.0230   60.5430 C.3    16  VAL16       0.0290
     23  CG1       28.7990   85.6090   59.1390 C.3    16  VAL16       0.0023
     24  CG2       29.5320   86.6240   61.3090 C.3    16  VAL16       0.0023
     25  N         27.0700   88.5520   62.3480 N.am   17  GLY17      -0.1940
     26  CA        26.6250   88.9700   63.6630 C.3    17  GLY17       0.2014
     27  C         27.6850   89.0070   64.7440 C.2    17  GLY17       0.2639
     28  O         27.3740   88.8600   65.9300 O.2    17  GLY17      -0.2714
     29  N         28.9350   89.2180   64.3540 N.am   18  LYS18      -0.1963
     30  CA        30.0160   89.2580   65.3260 C.3    18  LYS18       0.1728
     31  C         29.7700   90.3510   66.3580 C.2    18  LYS18       0.2617
     32  O         29.9430   90.1340   67.5610 O.2    18  LYS18      -0.2715
     33  CB        31.3590   89.4940   64.6250 C.3    18  LYS18       0.0311
     34  CG        31.7680   88.3730   63.6880 C.3    18  LYS18       0.0038
     35  CD        33.1630   88.5870   63.0940 C.3    18  LYS18       0.0206
     36  CE        33.2050   89.7370   62.0910 C.3    18  LYS18       0.1093
     37  NZ        32.2730   89.5200   60.9530 N.3    18  LYS18      -0.1314
     38  N         29.3650   91.5230   65.8730 N.am   19  SER19      -0.1936
     39  CA        29.0950   92.6780   66.7190 C.3    19  SER19       0.2055
     40  C         27.8120   92.4950   67.4970 C.2    19  SER19       0.2643
     41  O         27.7930   92.6280   68.7190 O.2    19  SER19      -0.2714
     42  CB        28.9780   93.9180   65.8600 C.3    19  SER19       0.2130
     43  OG        30.1500   94.0610   65.1010 O.3    19  SER19      -0.2179
     44  N         26.7370   92.1970   66.7780 N.am   20  SER20      -0.1949
     45  CA        25.4340   91.9840   67.3890 C.3    20  SER20       0.1924
     46  C         25.5750   91.0410   68.5810 C.2    20  SER20       0.2314
     47  O         25.1030   91.3260   69.6850 O.2    20  SER20      -0.2863
     48  CB        24.4810   91.3820   66.3560 C.3    20  SER20       0.2116
     49  OG        24.3930   92.1980   65.1970 O.3    20  SER20      -0.2180
     50  N         19.7970   94.4520   71.3810 N.3    30  PHE30      -0.1227
     51  CA        19.9990   93.9640   70.0310 C.3    30  PHE30       0.1736
     52  C         19.8320   95.1120   69.0530 C.2    30  PHE30       0.2595
     53  O         18.7440   95.6560   68.8910 O.2    30  PHE30      -0.2718
     54  CB        18.9950   92.8610   69.7000 C.3    30  PHE30       0.0547
     55  CG        19.0910   92.3650   68.2870 C.ar   30  PHE30      -0.0202
     56  CD1       20.2000   91.6490   67.8620 C.ar   30  PHE30      -0.0042
     57  CD2       18.0960   92.6610   67.3650 C.ar   30  PHE30      -0.0042
     58  CE1       20.3180   91.2390   66.5410 C.ar   30  PHE30      -0.0003
     59  CE2       18.2080   92.2540   66.0400 C.ar   30  PHE30      -0.0003
     60  CZ        19.3210   91.5430   65.6290 C.ar   30  PHE30      -0.0000
     61  N         20.9240   95.4780   68.4020 N.am   31  VAL31      -0.1966
     62  CA        20.9090   96.5590   67.4310 C.3    31  VAL31       0.1727
     63  C         20.6710   96.0080   66.0240 C.2    31  VAL31       0.2616
     64  O         21.2450   94.9870   65.6410 O.2    31  VAL31      -0.2715
     65  CB        22.2520   97.3360   67.4670 C.3    31  VAL31       0.0290
     66  CG1       22.3860   98.0790   68.7880 C.3    31  VAL31       0.0023
     67  CG2       23.4210   96.3700   67.3100 C.3    31  VAL31       0.0023
     68  N         19.8100   96.6720   65.2610 N.am   32  ASP32      -0.1971
     69  CA        19.5360   96.2350   63.9000 C.3    32  ASP32       0.1709
     70  C         20.4280   97.0330   62.9650 C.2    32  ASP32       0.2293
     71  O         20.8090   96.5680   61.8910 O.2    32  ASP32      -0.2864
     72  CB        18.0780   96.4870   63.5290 C.3    32  ASP32       0.1436
     73  CG        17.6970   95.8440   62.2040 C.2    32  ASP32       0.3671
     74  OD1       18.5300   95.8590   61.2700 O.co2  32  ASP32      -0.2456
     75  OD2       16.5620   95.3300   62.0930 O.co2  32  ASP32      -0.2456
     76  N         22.8330   97.9390   60.9390 N.3    34  TYR34      -0.1227
     77  CA        24.0160   97.3020   60.3720 C.3    34  TYR34       0.1736
     78  C         25.1260   98.2950   60.0300 C.2    34  TYR34       0.2595
     79  O         25.0230   99.0550   59.0620 O.2    34  TYR34      -0.2718
     80  CB        23.6800   96.5140   59.1040 C.3    34  TYR34       0.0548
     81  CG        24.9180   95.8910   58.4900 C.ar   34  TYR34      -0.0200
     82  CD1       25.6280   94.9010   59.1690 C.ar   34  TYR34      -0.0009
     83  CD2       25.4200   96.3370   57.2680 C.ar   34  TYR34      -0.0009
     84  CE1       26.8070   94.3710   58.6570 C.ar   34  TYR34       0.0417
     85  CE2       26.6040   95.8110   56.7440 C.ar   34  TYR34       0.0417
     86  CZ        27.2910   94.8290   57.4470 C.ar   34  TYR34       0.1957
     87  OH        28.4610   94.3040   56.9470 O.3    34  TYR34      -0.2866
     88  N         26.1910   98.2680   60.8250 N.am   35  ASP35      -0.1960
     89  CA        27.3350   99.1410   60.6130 C.3    35  ASP35       0.1825
     90  C         28.5680   98.2920   60.3630 C.2    35  ASP35       0.2464
     91  O         28.9890   97.5300   61.2290 O.2    35  ASP35      -0.2730
     92  CB        27.5590  100.0200   61.8410 C.3    35  ASP35       0.1450
     93  CG        26.4780  101.0620   62.0110 C.2    35  ASP35       0.3671
     94  OD1       26.6220  102.1640   61.4390 O.co2  35  ASP35      -0.2456
     95  OD2       25.4760  100.7750   62.7020 O.co2  35  ASP35      -0.2456
     96  N         29.1500   98.3900   59.1600 N.am   36  PRO36      -0.2715
     97  CA        30.3480   97.5930   58.8810 C.3    36  PRO36       0.1536
     98  C         31.3580   98.0040   59.9430 C.2    36  PRO36       0.2599
     99  O         31.5380   99.1960   60.1930 O.2    36  PRO36      -0.2715
    100  CB        30.7470   98.0510   57.4830 C.3    36  PRO36       0.0310
    101  CG        29.4240   98.4430   56.8650 C.3    36  PRO36       0.0237
    102  CD        28.7620   99.1960   57.9890 C.3    36  PRO36       0.0939
    103  N         32.0100   97.0370   60.5720 N.am   37  THR37      -0.1951
    104  CA        32.9510   97.3580   61.6320 C.3    37  THR37       0.1897
    105  C         34.4050   97.4600   61.2190 C.2    37  THR37       0.2313
    106  O         34.8750   96.6870   60.3920 O.2    37  THR37      -0.2863
    107  CB        32.8380   96.3380   62.7650 C.3    37  THR37       0.1794
    108  OG1       31.5880   96.5220   63.4380 O.3    37  THR37      -0.2208
    109  CG2       33.9800   96.4930   63.7530 C.3    37  THR37       0.0378
    110  N         36.0850   92.8030   68.7220 N.3    59  ASP59      -0.1225
    111  CA        35.1280   92.5540   67.6420 C.3    59  ASP59       0.1805
    112  C         35.7780   92.9720   66.3140 C.2    59  ASP59       0.2598
    113  O         35.7600   94.1440   65.9380 O.2    59  ASP59      -0.2718
    114  CB        33.8580   93.3660   67.9240 C.3    59  ASP59       0.1424
    115  CG        32.8470   93.2850   66.8130 C.2    59  ASP59       0.3668
    116  OD1       32.7720   92.2280   66.1580 O.co2  59  ASP59      -0.2456
    117  OD2       32.1120   94.2780   66.6080 O.co2  59  ASP59      -0.2456
    118  N         36.3510   92.0040   65.6090 N.am   60  THR60      -0.1953
    119  CA        37.0580   92.2650   64.3560 C.3    60  THR60       0.1897
    120  C         36.2090   92.5940   63.1280 C.2    60  THR60       0.2313
    121  O         35.0160   92.3120   63.0900 O.2    60  THR60      -0.2863
    122  CB        37.9750   91.0700   63.9980 C.3    60  THR60       0.1794
    123  OG1       37.1790   89.9320   63.6380 O.3    60  THR60      -0.2208
    124  CG2       38.8510   90.7060   65.1860 C.3    60  THR60       0.0378
    125  N         34.8950   92.1030   59.3770 N.3    62  GLY62      -0.1225
    126  CA        34.7030   90.9090   58.5740 C.3    62  GLY62       0.1811
    127  C         35.6830   90.6830   57.4330 C.2    62  GLY62       0.2280
    128  O         35.9890   91.5950   56.6560 O.2    62  GLY62      -0.2866
    129  N         25.7630   81.3290   64.2460 N.3   118  ASN118     -0.1225
    130  CA        24.8260   82.3610   64.6550 C.3   118  ASN118      0.1785
    131  C         23.5410   82.4350   63.8520 C.2   118  ASN118      0.2597
    132  O         23.4510   81.8920   62.7510 O.2   118  ASN118     -0.2718
    133  CB        25.5270   83.7180   64.6360 C.3   118  ASN118      0.1169
    134  CG        24.7180   84.7910   65.3130 C.2   118  ASN118      0.2627
    135  OD1       24.2460   84.6170   66.4350 O.2   118  ASN118     -0.2716
    136  ND2       24.5550   85.9140   64.6380 N.am  118  ASN118     -0.0877
    137  N         22.5510   83.1090   64.4330 N.am  119  LYS119     -0.1980
    138  CA        21.2380   83.3130   63.8290 C.3   119  LYS119      0.1596
    139  C         20.3360   82.0850   63.8230 C.2   119  LYS119      0.2287
    140  O         19.6410   81.8220   62.8390 O.2   119  LYS119     -0.2864
    141  CB        21.3920   83.8450   62.4070 C.3   119  LYS119      0.0298
    142  CG        22.2110   85.1060   62.3390 C.3   119  LYS119      0.0038
    143  CD        22.2270   85.6740   60.9460 C.3   119  LYS119      0.0206
    144  CE        23.1060   86.9020   60.8530 C.3   119  LYS119      0.1093
    145  NZ        23.1160   87.3910   59.4480 N.3   119  LYS119     -0.1314
    146  N         17.7140   81.7610   65.3600 N.3   121  ASP121     -0.1225
    147  CA        16.3340   82.2360   65.3650 C.3   121  ASP121      0.1805
    148  C         15.6780   82.2600   63.9850 C.2   121  ASP121      0.2597
    149  O         14.5190   81.8750   63.8490 O.2   121  ASP121     -0.2718
    150  CB        16.2630   83.6320   65.9900 C.3   121  ASP121      0.1424
    151  CG        17.1140   84.6500   65.2530 C.2   121  ASP121      0.3668
    152  OD1       16.6840   85.1470   64.1900 O.co2 121  ASP121     -0.2456
    153  OD2       18.2220   84.9460   65.7400 O.co2 121  ASP121     -0.2456
    154  N         16.4120   82.7140   62.9710 N.am  122  LEU122     -0.1979
    155  CA        15.8860   82.7940   61.6090 C.3   122  LEU122      0.1596
    156  C         15.6760   81.4160   60.9900 C.2   122  LEU122      0.2287
    157  O         16.3500   81.0510   60.0240 O.2   122  LEU122     -0.2864
    158  CB        16.8320   83.6060   60.7220 C.3   122  LEU122      0.0297
    159  CG        17.0250   85.0880   61.0360 C.3   122  LEU122      0.0022
    160  CD1       17.9460   85.7130   59.9960 C.3   122  LEU122      0.0001
    161  CD2       15.6810   85.7910   61.0340 C.3   122  LEU122      0.0001
    162  N         21.9000   83.2010   68.8770 N.3   148  SER148     -0.1202
    163  CA        21.1370   84.3030   68.3000 C.3   148  SER148      0.2020
    164  C         21.4900   85.6050   69.0180 C.2   148  SER148      0.2619
    165  O         21.3860   85.7020   70.2450 O.2   148  SER148     -0.2717
    166  CB        19.6360   84.0460   68.4190 C.3   148  SER148      0.2103
    167  OG        18.9160   85.1350   67.8660 O.3   148  SER148     -0.2182
    168  N         21.9130   86.6030   68.2490 N.am  149  ALA149     -0.1965
    169  CA        22.2860   87.8850   68.8160 C.3   149  ALA149      0.1728
    170  C         21.0750   88.5950   69.4250 C.2   149  ALA149      0.2616
    171  O         21.1790   89.7330   69.9020 O.2   149  ALA149     -0.2715
    172  CB        22.9180   88.7420   67.7500 C.3   149  ALA149      0.0334
    173  N         19.9300   87.9120   69.4090 N.am  150  LYS150     -0.1977
    174  CA        18.6770   88.4380   69.9510 C.3   150  LYS150      0.1596
    175  C         18.2650   87.5930   71.1450 C.2   150  LYS150      0.2287
    176  O         17.2490   87.8480   71.7840 O.2   150  LYS150     -0.2864
    177  CB        17.5690   88.3850   68.8920 C.3   150  LYS150      0.0298
    178  CG        17.8840   89.1480   67.6210 C.3   150  LYS150      0.0038
    179  CD        16.7800   89.0190   66.5720 C.3   150  LYS150      0.0206
    180  CE        15.4640   89.6030   67.0680 C.3   150  LYS150      0.1093
    181  NZ        14.4530   89.7480   65.9880 N.3   150  LYS150     -0.1314
@<TRIPOS>BOND
     1    11     9    1
     2     9     8    2
     3     9    10    1
     4     8     7    1
     5     7     6    1
     6     6     5    1
     7    17    16    1
     8     5     2    1
     9   128   127    2
    10    85    83   ar
    11    85    86   ar
    12   101   100    1
    13   101   102    1
    14     4     3    2
    15    87    86    1
    16     1     2    1
    17    16    13    1
    18    83    81   ar
    19     2     3    1
    20   127   126    1
    21    86    84   ar
    22     3    12   am
    23   100    97    1
    24   102    96    1
    25    12    13    1
    26    13    14    1
    27    81    80    1
    28    81    82   ar
    29   126   125    1
    30    84    82   ar
    31    97    96    1
    32    97    98    1
    33    79    78    2
    34    80    77    1
    35    23    22    1
    36    96    90   am
    37    14    15    2
    38    14    18   am
    39   145   144    1
    40    18    19    1
    41    98    99    2
    42    98   103   am
    43   160   159    1
    44   157   156    2
    45    78    77    1
    46    78    88   am
    47    90    89    1
    48    90    91    2
    49    77    76    1
    50   106   105    2
    51    19    22    1
    52    19    20    1
    53    22    24    1
    54   103   104    1
    55    89    88    1
    56    89    92    1
    57   158   159    1
    58   158   155    1
    59   144   143    1
    60   143   142    1
    61    37    36    1
    62   156   155    1
    63   161   159    1
    64   105   104    1
    65    74    73   ar
    66    94    93   ar
    67   155   154    1
    68   104   107    1
    69    92    93    1
    70    20    25   am
    71    20    21    2
    72    71    70    2
    73    93    95   ar
    74    36    35    1
    75    75    73   ar
    76    73    72    1
    77   142   141    1
    78    25    26    1
    79   141   138    1
    80   132   131    2
    81   107   108    1
    82   107   109    1
    83   140   139    2
    84    70    69    1
    85   154   148   am
    86   121   120    2
    87    35    34    1
    88   120   119    1
    89    72    69    1
    90   123   122    1
    91    26    27    1
    92    34    33    1
    93   139   138    1
    94   138   137    1
    95   149   148    2
    96   131   137   am
    97   131   130    1
    98    69    68    1
    99   148   147    1
   100   122   119    1
   101   122   124    1
   102   152   151   ar
   103   129   130    1
   104    29    27   am
   105    29    30    1
   106   119   118    1
   107    33    30    1
   108   133   130    1
   109   133   134    1
   110   136   134   am
   111    27    28    2
   112    43    42    1
   113    49    48    1
   114   151   153   ar
   115   151   150    1
   116    68    63   am
   117   134   135    2
   118    30    31    1
   119   146   147    1
   120   147   150    1
   121   118   112   am
   122    60    59   ar
   123    60    58   ar
   124    64    63    2
   125    42    39    1
   126    38    31   am
   127    38    39    1
   128   113   112    2
   129   181   180    1
   130    63    62    1
   131    59    57   ar
   132   116   115   ar
   133   112   111    1
   134    48    45    1
   135    31    32    2
   136    58    56   ar
   137   179   180    1
   138   179   178    1
   139   117   115   ar
   140    39    40    1
   141    44    45    1
   142    44    40   am
   143   115   114    1
   144    67    65    1
   145    57    55   ar
   146    45    46    1
   147    62    65    1
   148    62    61    1
   149    65    66    1
   150    40    41    2
   151   178   177    1
   152   111   114    1
   153   111   110    1
   154   172   169    1
   155    56    55   ar
   156   167   166    1
   157   168   169    1
   158   168   164   am
   159    55    54    1
   160   163   166    1
   161   163   162    1
   162   163   164    1
   163    61    52   am
   164    46    47    2
   165   169   170    1
   166    53    52    2
   167   177   174    1
   168   164   165    2
   169    52    51    1
   170   173   170   am
   171   173   174    1
   172   170   171    2
   173    54    51    1
   174   174   175    1
   175    51    50    1
   176   175   176    2
