@<TRIPOS>MOLECULE
tmp/1xtsA00.pdb
 179 175 0 0 0
SMALL
GASTEIGER

@<TRIPOS>ATOM
      1  N        -31.6600   87.8790  -56.9490 N.3    14  ARG14      -0.1231
      2  CA       -30.8300   89.0560  -57.1890 C.3    14  ARG14       0.1694
      3  C        -29.3370   88.8040  -57.2990 C.2    14  ARG14       0.2593
      4  O        -28.7850   87.9150  -56.6520 O.2    14  ARG14      -0.2718
      5  CB       -31.0850   90.1300  -56.1230 C.3    14  ARG14       0.0321
      6  CG       -31.2540   89.5900  -54.7340 C.3    14  ARG14       0.0489
      7  CD       -31.5000   90.7000  -53.7170 C.3    14  ARG14       0.2205
      8  NE       -32.0790   90.1510  -52.4930 N.pl3  14  ARG14      -0.0865
      9  CZ       -33.3780   89.9080  -52.3220 C.cat  14  ARG14       0.5346
     10  NH1      -34.2420   90.1810  -53.2940 N.pl3  14  ARG14       0.1354
     11  NH2      -33.8100   89.3610  -51.1920 N.pl3  14  ARG14       0.1354
     12  N        -28.7070   89.5970  -58.1600 N.am   15  SER15      -0.1938
     13  CA       -27.2740   89.5530  -58.4060 C.3    15  SER15       0.2055
     14  C        -26.7370   88.3400  -59.1640 C.2    15  SER15       0.2643
     15  O        -25.5250   88.1920  -59.3000 O.2    15  SER15      -0.2714
     16  CB       -26.5210   89.7030  -57.0800 C.3    15  SER15       0.2130
     17  OG       -25.1530   90.0090  -57.2980 O.3    15  SER15      -0.2179
     18  N        -27.6150   87.4780  -59.6690 N.am   16  VAL16      -0.1963
     19  CA       -27.1500   86.3050  -60.4110 C.3    16  VAL16       0.1727
     20  C        -26.6000   86.7000  -61.7710 C.2    16  VAL16       0.2617
     21  O        -25.8450   85.9490  -62.3830 O.2    16  VAL16      -0.2715
     22  CB       -28.2680   85.2670  -60.6320 C.3    16  VAL16       0.0290
     23  CG1      -28.6600   84.6420  -59.3190 C.3    16  VAL16       0.0023
     24  CG2      -29.4630   85.9250  -61.2870 C.3    16  VAL16       0.0023
     25  N        -26.9860   87.8770  -62.2490 N.am   17  GLY17      -0.1940
     26  CA       -26.4940   88.3240  -63.5390 C.3    17  GLY17       0.2014
     27  C        -27.5130   88.3340  -64.6650 C.2    17  GLY17       0.2639
     28  O        -27.1560   88.2270  -65.8460 O.2    17  GLY17      -0.2714
     29  N        -28.7870   88.4550  -64.3130 N.am   18  LYS18      -0.1963
     30  CA       -29.8250   88.4980  -65.3240 C.3    18  LYS18       0.1728
     31  C        -29.5330   89.6740  -66.2520 C.2    18  LYS18       0.2617
     32  O        -29.5230   89.5220  -67.4670 O.2    18  LYS18      -0.2715
     33  CB       -31.2000   88.6590  -64.6720 C.3    18  LYS18       0.0311
     34  CG       -31.6290   87.4520  -63.8560 C.3    18  LYS18       0.0038
     35  CD       -33.0010   87.6510  -63.2150 C.3    18  LYS18       0.0206
     36  CE       -32.9610   88.6870  -62.1020 C.3    18  LYS18       0.1093
     37  NZ       -32.0430   88.2700  -61.0080 N.3    18  LYS18      -0.1314
     38  N        -29.2700   90.8400  -65.6740 N.am   19  SER19      -0.1936
     39  CA       -28.9800   92.0350  -66.4600 C.3    19  SER19       0.2055
     40  C        -27.7400   91.8840  -67.3380 C.2    19  SER19       0.2643
     41  O        -27.7990   92.1050  -68.5490 O.2    19  SER19      -0.2714
     42  CB       -28.8050   93.2320  -65.5330 C.3    19  SER19       0.2130
     43  OG       -29.9740   93.4230  -64.7630 O.3    19  SER19      -0.2179
     44  N        -26.6270   91.5170  -66.7040 N.am   20  SER20      -0.1949
     45  CA       -25.3380   91.3140  -67.3690 C.3    20  SER20       0.1924
     46  C        -25.4890   90.3450  -68.5330 C.2    20  SER20       0.2314
     47  O        -25.0260   90.6060  -69.6410 O.2    20  SER20      -0.2863
     48  CB       -24.3210   90.7310  -66.3820 C.3    20  SER20       0.2116
     49  OG       -24.2530   91.4830  -65.1810 O.3    20  SER20      -0.2180
     50  N        -19.6670   93.2820  -71.3670 N.3    30  PHE30      -0.1227
     51  CA       -19.9190   92.8790  -69.9920 C.3    30  PHE30       0.1736
     52  C        -19.8350   94.0720  -69.0570 C.2    30  PHE30       0.2595
     53  O        -18.7590   94.6280  -68.8490 O.2    30  PHE30      -0.2718
     54  CB       -18.8990   91.8250  -69.5610 C.3    30  PHE30       0.0547
     55  CG       -18.9790   91.4530  -68.1040 C.ar   30  PHE30      -0.0202
     56  CD1      -20.1090   90.8320  -67.5900 C.ar   30  PHE30      -0.0042
     57  CD2      -17.9230   91.7300  -67.2430 C.ar   30  PHE30      -0.0042
     58  CE1      -20.1830   90.4930  -66.2430 C.ar   30  PHE30      -0.0003
     59  CE2      -17.9910   91.3930  -65.8920 C.ar   30  PHE30      -0.0003
     60  CZ       -19.1220   90.7740  -65.3950 C.ar   30  PHE30      -0.0000
     61  N        -20.9780   94.4660  -68.5030 N.am   31  VAL31      -0.1966
     62  CA       -21.0290   95.5880  -67.5700 C.3    31  VAL31       0.1727
     63  C        -20.4970   95.0500  -66.2290 C.2    31  VAL31       0.2616
     64  O        -21.0370   94.0830  -65.6770 O.2    31  VAL31      -0.2715
     65  CB       -22.4940   96.1390  -67.4470 C.3    31  VAL31       0.0290
     66  CG1      -23.3410   95.2270  -66.5630 C.3    31  VAL31       0.0023
     67  CG2      -22.4760   97.5830  -66.9290 C.3    31  VAL31       0.0023
     68  N        -19.4350   95.6650  -65.7140 N.am   32  ASP32      -0.1957
     69  CA       -18.8200   95.1890  -64.4810 C.3    32  ASP32       0.1840
     70  C        -19.3750   95.7030  -63.1520 C.2    32  ASP32       0.2623
     71  O        -19.1360   95.1000  -62.1040 O.2    32  ASP32      -0.2715
     72  CB       -17.3170   95.4460  -64.5270 C.3    32  ASP32       0.1450
     73  CG       -16.5570   94.5510  -63.5760 C.2    32  ASP32       0.3671
     74  OD1      -16.6450   93.3160  -63.7330 O.co2  32  ASP32      -0.2456
     75  OD2      -15.8770   95.0700  -62.6650 O.co2  32  ASP32      -0.2456
     76  N        -20.1050   96.8100  -63.1900 N.am   33  SER33      -0.1936
     77  CA       -20.6880   97.3750  -61.9780 C.3    33  SER33       0.2055
     78  C        -21.9250   96.5820  -61.5900 C.2    33  SER33       0.2643
     79  O        -22.2460   95.5760  -62.2210 O.2    33  SER33      -0.2714
     80  CB       -21.0760   98.8380  -62.2110 C.3    33  SER33       0.2130
     81  OG       -21.9120   98.9710  -63.3500 O.3    33  SER33      -0.2179
     82  N        -22.6160   97.0250  -60.5490 N.am   34  TYR34      -0.1959
     83  CA       -23.8330   96.3510  -60.1250 C.3    34  TYR34       0.1771
     84  C        -24.9030   97.3290  -59.6910 C.2    34  TYR34       0.2620
     85  O        -24.8450   97.8850  -58.5990 O.2    34  TYR34      -0.2715
     86  CB       -23.5800   95.3910  -58.9660 C.3    34  TYR34       0.0574
     87  CG       -24.8690   94.8100  -58.4090 C.ar   34  TYR34      -0.0198
     88  CD1      -24.9990   94.5270  -57.0520 C.ar   34  TYR34      -0.0009
     89  CD2      -25.9610   94.5520  -59.2360 C.ar   34  TYR34      -0.0009
     90  CE1      -26.1820   94.0030  -56.5380 C.ar   34  TYR34       0.0417
     91  CE2      -27.1470   94.0280  -58.7280 C.ar   34  TYR34       0.0417
     92  CZ       -27.2460   93.7570  -57.3780 C.ar   34  TYR34       0.1957
     93  OH       -28.4020   93.2330  -56.8670 O.3    34  TYR34      -0.2866
     94  N        -25.8900   97.5250  -60.5540 N.am   35  ASP35      -0.1958
     95  CA       -26.9940   98.4160  -60.2520 C.3    35  ASP35       0.1825
     96  C        -28.2040   97.4950  -60.2090 C.2    35  ASP35       0.2464
     97  O        -28.5680   96.9010  -61.2220 O.2    35  ASP35      -0.2730
     98  CB       -27.1540   99.4560  -61.3700 C.3    35  ASP35       0.1450
     99  CG       -28.0010  100.6520  -60.9500 C.2    35  ASP35       0.3671
    100  OD1      -28.9480  100.4720  -60.1490 O.co2  35  ASP35      -0.2456
    101  OD2      -27.7240  101.7720  -61.4360 O.co2  35  ASP35      -0.2456
    102  N        -28.8140   97.3220  -59.0300 N.am   36  PRO36      -0.2715
    103  CA       -29.9850   96.4430  -58.9700 C.3    36  PRO36       0.1536
    104  C        -31.0000   96.9100  -60.0120 C.2    36  PRO36       0.2599
    105  O        -31.1010   98.1090  -60.2850 O.2    36  PRO36      -0.2715
    106  CB       -30.4740   96.6300  -57.5400 C.3    36  PRO36       0.0310
    107  CG       -29.2060   96.8510  -56.7990 C.3    36  PRO36       0.0237
    108  CD       -28.4570   97.8110  -57.6890 C.3    36  PRO36       0.0939
    109  N        -31.7440   95.9730  -60.6000 N.am   37  THR37      -0.1951
    110  CA       -32.7220   96.3220  -61.6310 C.3    37  THR37       0.1897
    111  C        -34.1550   96.4540  -61.1490 C.2    37  THR37       0.2313
    112  O        -34.6160   95.6740  -60.3190 O.2    37  THR37      -0.2863
    113  CB       -32.6950   95.2990  -62.7880 C.3    37  THR37       0.1794
    114  OG1      -31.5350   95.5310  -63.5910 O.3    37  THR37      -0.2208
    115  CG2      -33.9290   95.4230  -63.6600 C.3    37  THR37       0.0378
    116  N        -36.1600   91.3910  -65.4940 N.3    60  THR60      -0.1218
    117  CA       -36.8010   91.6800  -64.2110 C.3    60  THR60       0.1862
    118  C        -35.9660   91.9030  -62.9420 C.2    60  THR60       0.2287
    119  O        -34.7800   91.5660  -62.8580 O.2    60  THR60      -0.2866
    120  CB       -37.8490   90.6070  -63.8960 C.3    60  THR60       0.1770
    121  OG1      -37.1990   89.3820  -63.5420 O.3    60  THR60      -0.2211
    122  CG2      -38.7100   90.3640  -65.1160 C.3    60  THR60       0.0375
    123  N        -34.6870   91.3740  -59.2480 N.3    62  GLY62      -0.1225
    124  CA       -34.4110   90.2030  -58.4380 C.3    62  GLY62       0.1811
    125  C        -35.5360   89.8860  -57.4700 C.2    62  GLY62       0.2280
    126  O        -36.1930   90.7810  -56.9360 O.2    62  GLY62      -0.2866
    127  N        -25.5290   80.7550  -64.0490 N.3   118  ASN118     -0.1225
    128  CA       -24.6100   81.8080  -64.4290 C.3   118  ASN118      0.1785
    129  C        -23.3260   81.8620  -63.6100 C.2   118  ASN118      0.2597
    130  O        -23.1820   81.1720  -62.5990 O.2   118  ASN118     -0.2718
    131  CB       -25.3210   83.1520  -64.3410 C.3   118  ASN118      0.1169
    132  CG       -24.7600   84.1610  -65.2990 C.2   118  ASN118      0.2627
    133  OD1      -24.6890   85.3520  -64.9910 O.2   118  ASN118     -0.2716
    134  ND2      -24.3670   83.6980  -66.4830 N.am  118  ASN118     -0.0877
    135  N        -22.4000   82.7040  -64.0600 N.am  119  LYS119     -0.1980
    136  CA       -21.1190   82.8890  -63.4000 C.3   119  LYS119      0.1596
    137  C        -20.2700   81.6340  -63.4870 C.2   119  LYS119      0.2287
    138  O        -19.6030   81.2310  -62.5340 O.2   119  LYS119     -0.2864
    139  CB       -21.3450   83.3190  -61.9560 C.3   119  LYS119      0.0298
    140  CG       -22.0780   84.6420  -61.8960 C.3   119  LYS119      0.0038
    141  CD       -22.1870   85.1710  -60.4910 C.3   119  LYS119      0.0206
    142  CE       -23.0120   86.4370  -60.4630 C.3   119  LYS119      0.1093
    143  NZ       -23.2940   86.8170  -59.0660 N.3   119  LYS119     -0.1314
    144  N        -17.6730   81.3280  -65.1210 N.3   121  ASP121     -0.1225
    145  CA       -16.2700   81.7320  -65.0750 C.3   121  ASP121      0.1805
    146  C        -15.6430   81.7870  -63.6790 C.2   121  ASP121      0.2597
    147  O        -14.4660   81.4530  -63.5170 O.2   121  ASP121     -0.2718
    148  CB       -16.1030   83.0870  -65.7760 C.3   121  ASP121      0.1424
    149  CG       -17.0290   84.1520  -65.2170 C.2   121  ASP121      0.3668
    150  OD1      -16.5630   85.0160  -64.4390 O.co2 121  ASP121     -0.2456
    151  OD2      -18.2330   84.1170  -65.5520 O.co2 121  ASP121     -0.2456
    152  N        -16.4150   82.2040  -62.6780 N.am  122  LEU122     -0.1979
    153  CA       -15.9000   82.2960  -61.3190 C.3   122  LEU122      0.1596
    154  C        -15.6140   80.9140  -60.7470 C.2   122  LEU122      0.2287
    155  O        -16.2980   80.4460  -59.8380 O.2   122  LEU122     -0.2864
    156  CB       -16.8940   83.0350  -60.4310 C.3   122  LEU122      0.0297
    157  CG       -17.2170   84.4530  -60.8860 C.3   122  LEU122      0.0022
    158  CD1      -18.0490   85.1280  -59.8160 C.3   122  LEU122      0.0001
    159  CD2      -15.9370   85.2260  -61.1380 C.3   122  LEU122      0.0001
    160  N        -21.7270   82.5040  -68.8700 N.3   148  SER148     -0.1202
    161  CA       -20.9400   83.5660  -68.2690 C.3   148  SER148      0.2020
    162  C        -21.2540   84.8690  -69.0080 C.2   148  SER148      0.2619
    163  O        -21.0900   84.9510  -70.2250 O.2   148  SER148     -0.2717
    164  CB       -19.4500   83.2710  -68.3760 C.3   148  SER148      0.2103
    165  OG       -18.7110   84.4030  -67.9440 O.3   148  SER148     -0.2182
    166  N        -21.7060   85.8820  -68.2710 N.am  149  ALA149     -0.1965
    167  CA       -22.0490   87.1670  -68.8680 C.3   149  ALA149      0.1728
    168  C        -20.8430   87.7890  -69.5580 C.2   149  ALA149      0.2616
    169  O        -20.9860   88.7500  -70.3130 O.2   149  ALA149     -0.2715
    170  CB       -22.5790   88.1090  -67.8030 C.3   149  ALA149      0.0334
    171  N        -19.6580   87.2360  -69.2990 N.am  150  LYS150     -0.1977
    172  CA       -18.4180   87.7390  -69.8890 C.3   150  LYS150      0.1596
    173  C        -18.1020   86.9640  -71.1600 C.2   150  LYS150      0.2287
    174  O        -17.3600   87.4330  -72.0210 O.2   150  LYS150     -0.2864
    175  CB       -17.2620   87.6010  -68.8900 C.3   150  LYS150      0.0298
    176  CG       -17.5800   88.1780  -67.5170 C.3   150  LYS150      0.0038
    177  CD       -16.4320   88.0520  -66.5360 C.3   150  LYS150      0.0206
    178  CE       -15.3070   88.9860  -66.9010 C.3   150  LYS150      0.1093
    179  NZ       -14.3790   89.1750  -65.7580 N.3   150  LYS150     -0.1314
@<TRIPOS>BOND
     1   174   173    2
     2    50    51    1
     3   173   172    1
     4   169   168    2
     5   163   162    2
     6    51    54    1
     7    51    52    1
     8   172   171    1
     9   172   175    1
    10    47    46    2
    11    54    55    1
    12   168   171   am
    13   168   167    1
    14    52    53    2
    15    52    61   am
    16   162   166   am
    17   162   161    1
    18   175   176    1
    19   160   161    1
    20   167   166    1
    21   167   170    1
    22    41    40    2
    23    46    45    1
    24    61    62    1
    25   164   161    1
    26   164   165    1
    27    55    56   ar
    28    55    57   ar
    29    56    58   ar
    30    62    65    1
    31    62    63    1
    32   176   177    1
    33    32    31    2
    34    65    67    1
    35    65    66    1
    36    45    44    1
    37    45    48    1
    38    40    44   am
    39    40    39    1
    40    57    59   ar
    41   178   177    1
    42   178   179    1
    43   134   132   am
    44    39    38    1
    45    39    42    1
    46    48    49    1
    47    31    38   am
    48    31    30    1
    49    58    60   ar
    50    63    68   am
    51    63    64    2
    52    59    60   ar
    53    28    27    2
    54   148   149    1
    55   148   145    1
    56    68    69    1
    57   151   149   ar
    58    42    43    1
    59   116   117    1
    60    30    33    1
    61    30    29    1
    62   132   133    2
    63   132   131    1
    64   149   150   ar
    65   144   145    1
    66   122   120    1
    67   145   146    1
    68    33    34    1
    69    27    29   am
    70    27    26    1
    71    72    69    1
    72    72    73    1
    73    69    70    1
    74   128   131    1
    75   128   127    1
    76   128   129    1
    77   117   120    1
    78   117   118    1
    79   135   129   am
    80   135   136    1
    81   120   121    1
    82    34    35    1
    83    74    73   ar
    84   146   147    2
    85   146   152   am
    86   115   113    1
    87   129   130    2
    88   114   113    1
    89    73    75   ar
    90    26    25    1
    91   137   136    1
    92   137   138    2
    93   136   139    1
    94    81    80    1
    95    35    36    1
    96    76    70   am
    97    76    77    1
    98    70    71    2
    99   118   119    2
   100   113   110    1
   101   152   153    1
   102    21    20    2
   103    25    20   am
   104    79    78    2
   105    80    77    1
   106    36    37    1
   107    77    78    1
   108   139   140    1
   109   140   141    1
   110    20    19    1
   111   110   111    1
   112   110   109    1
   113    78    82   am
   114   101    99   ar
   115    98    99    1
   116    98    95    1
   117   153   154    1
   118   153   156    1
   119    24    22    1
   120    97    96    2
   121   111   112    2
   122   159   157    1
   123    99   100   ar
   124   157   156    1
   125   157   158    1
   126   154   155    2
   127    22    19    1
   128    22    23    1
   129   109   104   am
   130    94    95    1
   131    94    84   am
   132    82    83    1
   133   141   142    1
   134   142   143    1
   135    19    18    1
   136   105   104    2
   137    95    96    1
   138    96   102   am
   139    83    84    1
   140    83    86    1
   141   104   103    1
   142    84    85    2
   143    18    14   am
   144    15    14    2
   145   123   124    1
   146    89    91   ar
   147    89    87   ar
   148    14    13    1
   149   102   103    1
   150   102   108    1
   151   103   106    1
   152    86    87    1
   153    91    92   ar
   154   124   125    1
   155    87    88   ar
   156    13    12    1
   157    13    16    1
   158    12     3   am
   159   108   107    1
   160   106   107    1
   161   125   126    2
   162    92    93    1
   163    92    90   ar
   164     3     2    1
   165     3     4    2
   166    17    16    1
   167     2     1    1
   168     2     5    1
   169    88    90   ar
   170     5     6    1
   171     6     7    1
   172     7     8    1
   173    10     9    1
   174     8     9    2
   175     9    11    1
