@<TRIPOS>MOLECULE
tmp/1xtuC00.pdb
 163 157 0 0 0
SMALL
GASTEIGER

@<TRIPOS>ATOM
      1  N         24.6630    8.9920   34.1680 N.3    77  ILE77      -0.1245
      2  CA        24.4570   10.3620   34.6280 C.3    77  ILE77       0.1561
      3  C         25.7440   11.1750   34.4280 C.2    77  ILE77       0.2260
      4  O         25.7520   12.4030   34.5270 O.2    77  ILE77      -0.2867
      5  CB        24.0610   10.3720   36.1050 C.3    77  ILE77       0.0252
      6  CG1       22.6330    9.8590   36.2480 C.3    77  ILE77       0.0019
      7  CG2       24.1540   11.7680   36.6740 C.3    77  ILE77       0.0019
      8  CD1       22.1010    9.9300   37.6760 C.3    77  ILE77       0.0001
      9  N         30.0080   12.0390   35.0630 N.3    79  ARG79      -0.1231
     10  CA        30.8040   12.4130   36.2160 C.3    79  ARG79       0.1694
     11  C         31.1140   11.1720   37.0520 C.2    79  ARG79       0.2591
     12  O         31.5730   10.1650   36.5200 O.2    79  ARG79      -0.2718
     13  CB        30.0710   13.4850   37.0160 C.3    79  ARG79       0.0321
     14  CG        30.0300   14.8170   36.2690 C.3    79  ARG79       0.0489
     15  CD        29.0290   15.7840   36.8600 C.3    79  ARG79       0.2205
     16  NE        29.0680   15.7600   38.3200 N.pl3  79  ARG79      -0.0865
     17  CZ        28.4920   16.6670   39.1050 C.cat  79  ARG79       0.5346
     18  NH1       27.8310   17.6870   38.5720 N.pl3  79  ARG79       0.1354
     19  NH2       28.5640   16.5480   40.4260 N.pl3  79  ARG79       0.1354
     20  N         30.8570   11.2180   38.3500 N.am   80  ALA80      -0.1980
     21  CA        31.1730   10.0700   39.2040 C.3    80  ALA80       0.1597
     22  C         30.5080    8.7590   38.7980 C.2    80  ALA80       0.2287
     23  O         31.0020    7.6850   39.1290 O.2    80  ALA80      -0.2864
     24  CB        30.8250   10.3980   40.6520 C.3    80  ALA80       0.0319
     25  N         23.1820   15.1510   34.2650 N.3   102  ALA102     -0.1245
     26  CA        22.4300   15.9870   35.1790 C.3   102  ALA102      0.1562
     27  C         23.3370   16.3460   36.3420 C.2   102  ALA102      0.2260
     28  O         24.1300   15.5170   36.8010 O.2   102  ALA102     -0.2867
     29  CB        21.2020   15.2360   35.6790 C.3   102  ALA102      0.0290
     30  N         23.1440   18.5050   40.1240 N.3   104  ARG104     -0.1245
     31  CA        22.4350   19.3040   41.1070 C.3   104  ARG104      0.1563
     32  C         23.3580   20.4620   41.4450 C.2   104  ARG104      0.2260
     33  O         24.5730   20.3660   41.2740 O.2   104  ARG104     -0.2867
     34  CB        22.1530   18.5000   42.3790 C.3   104  ARG104      0.0307
     35  CG        23.3820   18.2570   43.2360 C.3   104  ARG104      0.0489
     36  CD        23.0060   17.9250   44.6730 C.3   104  ARG104      0.2205
     37  NE        24.1910   17.6250   45.4770 N.pl3 104  ARG104     -0.0865
     38  CZ        24.1640   17.1620   46.7230 C.cat 104  ARG104      0.5346
     39  NH1       23.0040   16.9350   47.3230 N.pl3 104  ARG104      0.1354
     40  NH2       25.3020   16.9410   47.3720 N.pl3 104  ARG104      0.1354
     41  N         25.3070   22.5260   43.9840 N.3   106  GLU106     -0.1245
     42  CA        25.8240   22.4200   45.3400 C.3   106  GLU106      0.1567
     43  C         25.5950   23.7380   46.0680 C.2   106  GLU106      0.2260
     44  O         26.0580   24.7920   45.6250 O.2   106  GLU106     -0.2867
     45  CB        27.3190   22.0920   45.3280 C.3   106  GLU106      0.0388
     46  CG        27.6540   20.6510   44.9610 C.3   106  GLU106      0.1160
     47  CD        26.9790   19.6390   45.8680 C.2   106  GLU106      0.3649
     48  OE1       26.7060   19.9760   47.0420 O.co2 106  GLU106     -0.2457
     49  OE2       26.7360   18.5030   45.4080 O.co2 106  GLU106     -0.2457
     50  N         24.0480    5.9860   39.9090 N.3   139  ASP139     -0.1225
     51  CA        24.5310    7.1880   40.5790 C.3   139  ASP139      0.1790
     52  C         25.0750    6.7160   41.9160 C.2   139  ASP139      0.2440
     53  O         24.3410    6.2120   42.7590 O.2   139  ASP139     -0.2733
     54  CB        23.3970    8.1930   40.7850 C.3   139  ASP139      0.1423
     55  CG        23.9060    9.5630   41.2220 C.2   139  ASP139      0.3668
     56  OD1       25.0740    9.8900   40.8910 O.co2 139  ASP139     -0.2456
     57  OD2       23.1330   10.3120   41.8760 O.co2 139  ASP139     -0.2456
     58  N         26.3820    6.8730   42.1230 N.am  140  PRO140     -0.2718
     59  CA        27.0620    6.4550   43.3560 C.3   140  PRO140      0.1535
     60  C         26.3690    6.9000   44.6420 C.2   140  PRO140      0.2598
     61  O         26.2400    6.1240   45.5930 O.2   140  PRO140     -0.2715
     62  CB        28.4450    7.0850   43.2220 C.3   140  PRO140      0.0310
     63  CG        28.6200    7.2370   41.7360 C.3   140  PRO140      0.0237
     64  CD        27.2650    7.7170   41.3040 C.3   140  PRO140      0.0939
     65  N         25.9200    8.1500   44.6660 N.am  141  MET141     -0.1964
     66  CA        25.2810    8.6850   45.8530 C.3   141  MET141      0.1736
     67  C         23.9080    9.2380   45.5890 C.2   141  MET141      0.2616
     68  O         23.6790    9.9360   44.6010 O.2   141  MET141     -0.2715
     69  CB        26.1200    9.8170   46.4470 C.3   141  MET141      0.0427
     70  CG        27.5720    9.4800   46.6630 C.3   141  MET141      0.0599
     71  SD        27.8400    8.3440   48.0150 S.3   141  MET141     -0.1393
     72  CE        27.9770    9.5160   49.3800 C.3   141  MET141      0.0692
     73  N         22.9910    8.9330   46.4920 N.am  142  ILE142     -0.1963
     74  CA        21.6370    9.4600   46.4030 C.3   142  ILE142      0.1727
     75  C         21.3970   10.1380   47.7530 C.2   142  ILE142      0.2616
     76  O         21.2040    9.4660   48.7650 O.2   142  ILE142     -0.2715
     77  CB        20.6020    8.3390   46.1700 C.3   142  ILE142      0.0290
     78  CG1       20.9290    7.6060   44.8690 C.3   142  ILE142      0.0022
     79  CG2       19.2060    8.9360   46.0880 C.3   142  ILE142      0.0023
     80  CD1       19.9560    6.5230   44.5250 C.3   142  ILE142      0.0001
     81  N         21.4490   11.4680   47.7700 N.am  143  ALA143     -0.1963
     82  CA        21.2590   12.2220   49.0020 C.3   143  ALA143      0.1728
     83  C         19.8420   12.7400   49.1250 C.2   143  ALA143      0.2617
     84  O         19.0580   12.2160   49.8950 O.2   143  ALA143     -0.2715
     85  CB        22.2280   13.3650   49.0560 C.3   143  ALA143      0.0334
     86  N         19.5080   13.7750   48.3750 N.am  144  THR144     -0.1937
     87  CA        18.1590   14.3200   48.4270 C.3   144  THR144      0.2028
     88  C         17.3130   13.6730   47.3510 C.2   144  THR144      0.2642
     89  O         16.1320   13.9970   47.1980 O.2   144  THR144     -0.2714
     90  CB        18.1570   15.8240   48.1640 C.3   144  THR144      0.1808
     91  OG1       18.7110   16.0720   46.8650 O.3   144  THR144     -0.2208
     92  CG2       18.9760   16.5520   49.2270 C.3   144  THR144      0.0379
     93  N         17.9370   12.7690   46.6000 N.am  145  ALA145     -0.1963
     94  CA        17.2830   12.0500   45.5090 C.3   145  ALA145      0.1728
     95  C         16.8690   13.0100   44.3940 C.2   145  ALA145      0.2617
     96  O         16.2670   12.5970   43.4010 O.2   145  ALA145     -0.2715
     97  CB        16.0580   11.2920   46.0270 C.3   145  ALA145      0.0334
     98  N         17.2000   14.2870   44.5550 N.am  146  SER146     -0.1936
     99  CA        16.8410   15.2910   43.5600 C.3   146  SER146      0.2055
    100  C         17.4130   14.9700   42.1870 C.2   146  SER146      0.2644
    101  O         16.7580   15.1650   41.1630 O.2   146  SER146     -0.2714
    102  CB        17.3230   16.6690   44.0120 C.3   146  SER146      0.2130
    103  OG        16.6730   17.0590   45.2090 O.3   146  SER146     -0.2179
    104  N         18.6420   14.4780   42.1670 N.am  147  THR147     -0.1936
    105  CA        19.2850   14.1390   40.9110 C.3   147  THR147      0.2028
    106  C         18.5690   12.9630   40.2560 C.2   147  THR147      0.2642
    107  O         18.1470   13.0640   39.1040 O.2   147  THR147     -0.2714
    108  CB        20.7810   13.8090   41.1370 C.3   147  THR147      0.1808
    109  OG1       21.4510   14.9700   41.6510 O.3   147  THR147     -0.2208
    110  CG2       21.4470   13.3990   39.8300 C.3   147  THR147      0.0379
    111  N         18.4240   11.8610   40.9930 N.am  148  MET148     -0.1976
    112  CA        17.7340   10.6800   40.4700 C.3   148  MET148      0.1605
    113  C         16.3490   11.0350   39.9800 C.2   148  MET148      0.2287
    114  O         15.9310   10.6100   38.9050 O.2   148  MET148     -0.2864
    115  CB        17.5940    9.5960   41.5340 C.3   148  MET148      0.0413
    116  CG        18.7820    8.6800   41.6250 C.3   148  MET148      0.0598
    117  SD        19.2750    8.1130   39.9940 S.3   148  MET148     -0.1393
    118  CE        17.8880    7.0980   39.5460 C.3   148  MET148      0.0692
    119  N         23.9830   18.9930   52.0940 N.3   200  GLY200     -0.1210
    120  CA        23.3560   17.9270   51.3370 C.3   200  GLY200      0.1956
    121  C         24.2490   16.7210   51.1330 C.2   200  GLY200      0.2612
    122  O         24.1590   16.0560   50.1070 O.2   200  GLY200     -0.2717
    123  N         25.1170   16.4360   52.0970 N.am  201  TYR201     -0.1962
    124  CA        25.9910   15.2890   51.9850 C.3   201  TYR201      0.1771
    125  C         25.5850   14.1480   52.9040 C.2   201  TYR201      0.2619
    126  O         25.1160   14.3550   54.0180 O.2   201  TYR201     -0.2715
    127  CB        27.4360   15.6920   52.2420 C.3   201  TYR201      0.0574
    128  CG        28.0530   16.3710   51.0520 C.ar  201  TYR201     -0.0198
    129  CD1       27.6630   17.6510   50.6800 C.ar  201  TYR201     -0.0009
    130  CD2       28.9710   15.7000   50.2450 C.ar  201  TYR201     -0.0009
    131  CE1       28.1660   18.2460   49.5260 C.ar  201  TYR201      0.0417
    132  CE2       29.4780   16.2810   49.0890 C.ar  201  TYR201      0.0417
    133  CZ        29.0710   17.5540   48.7330 C.ar  201  TYR201      0.1957
    134  OH        29.5470   18.1300   47.5800 O.3   201  TYR201     -0.2866
    135  N         25.7690   12.9310   52.4120 N.am  202  ILE202     -0.1977
    136  CA        25.4090   11.7320   53.1410 C.3   202  ILE202      0.1596
    137  C         26.3900   11.4640   54.2650 C.2   202  ILE202      0.2287
    138  O         27.6000   11.4590   54.0620 O.2   202  ILE202     -0.2864
    139  CB        25.3770   10.5050   52.1870 C.3   202  ILE202      0.0276
    140  CG1       24.2990   10.7130   51.1200 C.3   202  ILE202      0.0022
    141  CG2       25.1370    9.2120   52.9750 C.3   202  ILE202      0.0022
    142  CD1       24.2550    9.6190   50.0760 C.3   202  ILE202      0.0001
    143  N         32.0660   11.2460   51.2180 N.3   207  GLY207     -0.1210
    144  CA        32.5420   12.4820   50.6320 C.3   207  GLY207      0.1956
    145  C         31.8780   12.7620   49.3030 C.2   207  GLY207      0.2612
    146  O         30.8250   12.1970   49.0160 O.2   207  GLY207     -0.2717
    147  N         32.4790   13.6430   48.5030 N.am  208  ASP208     -0.1959
    148  CA        31.9430   13.9840   47.1860 C.3   208  ASP208      0.1840
    149  C         32.4820   12.9950   46.1730 C.2   208  ASP208      0.2622
    150  O         33.6900   12.9520   45.9270 O.2   208  ASP208     -0.2715
    151  CB        32.3800   15.3740   46.7670 C.3   208  ASP208      0.1450
    152  CG        31.7680   15.7960   45.4540 C.2   208  ASP208      0.3671
    153  OD1       30.5560   16.1160   45.4440 O.co2 208  ASP208     -0.2456
    154  OD2       32.4930   15.7980   44.4330 O.co2 208  ASP208     -0.2456
    155  N         31.5830   12.2070   45.5870 N.am  209  ALA209     -0.1963
    156  CA        31.9590   11.1920   44.6140 C.3   209  ALA209      0.1728
    157  C         32.8850   11.7450   43.5340 C.2   209  ALA209      0.2616
    158  O         33.9250   11.1440   43.2260 O.2   209  ALA209     -0.2715
    159  CB        30.7130   10.6060   43.9870 C.3   209  ALA209      0.0334
    160  N         32.5070   12.8940   42.9720 N.am  210  GLY210     -0.1955
    161  CA        33.3050   13.5100   41.9240 C.3   210  GLY210      0.1869
    162  C         34.7330   13.7720   42.3460 C.2   210  GLY210      0.2309
    163  O         35.6870   13.4600   41.6250 O.2   210  GLY210     -0.2863
@<TRIPOS>BOND
     1     1     2    1
     2    25    26    1
     3     3     4    2
     4     3     2    1
     5     2     5    1
     6     9    10    1
     7    26    29    1
     8    26    27    1
     9     5     6    1
    10     5     7    1
    11    10    13    1
    12    10    11    1
    13     6     8    1
    14    14    15    1
    15    14    13    1
    16    27    28    2
    17    12    11    2
    18    15    16    1
    19    11    20   am
    20    16    17    2
    21    20    21    1
    22    18    17    1
    23    22    23    2
    24    22    21    1
    25   114   113    2
    26   107   106    2
    27    17    19    1
    28    21    24    1
    29   118   117    1
    30   110   108    1
    31    50    51    1
    32   113   112    1
    33   117   116    1
    34    30    31    1
    35   106   105    1
    36   106   111   am
    37   112   111    1
    38   112   115    1
    39    51    54    1
    40    51    52    1
    41    54    55    1
    42    56    55   ar
    43   105   108    1
    44   105   104    1
    45    31    32    1
    46    31    34    1
    47   108   109    1
    48   101   100    2
    49    55    57   ar
    50    33    32    2
    51    64    63    1
    52    64    58    1
    53   115   116    1
    54   163   162    2
    55    63    62    1
    56    52    58   am
    57    52    53    2
    58   161   162    1
    59   161   160    1
    60    58    59    1
    61   104   100   am
    62   100    99    1
    63    34    35    1
    64   160   157   am
    65    62    59    1
    66   158   157    2
    67    35    36    1
    68    59    60    1
    69    96    95    2
    70   157   156    1
    71    99   102    1
    72    99    98    1
    73    41    42    1
    74   159   156    1
    75   102   103    1
    76    95    98   am
    77    95    94    1
    78   154   152   ar
    79    80    78    1
    80    68    67    2
    81   156   155    1
    82    60    65   am
    83    60    61    2
    84    65    66    1
    85    36    37    1
    86    78    77    1
    87    46    45    1
    88    46    47    1
    89    45    42    1
    90    42    43    1
    91    49    47   ar
    92   153   152   ar
    93   152   151    1
    94    37    38    2
    95    94    97    1
    96    94    93    1
    97   155   149   am
    98    67    66    1
    99    67    73   am
   100    44    43    2
   101    66    69    1
   102    47    48   ar
   103   150   149    2
   104    79    77    1
   105    77    74    1
   106   149   148    1
   107    74    73    1
   108    74    75    1
   109    69    70    1
   110    93    88   am
   111    70    71    1
   112    38    39    1
   113    38    40    1
   114   151   148    1
   115    91    90    1
   116   148   147    1
   117    89    88    2
   118    88    87    1
   119   134   133    1
   120    75    81   am
   121    75    76    2
   122    81    82    1
   123    71    72    1
   124    90    87    1
   125    90    92    1
   126    86    87    1
   127    86    83   am
   128   147   145   am
   129   133   132   ar
   130   133   131   ar
   131    82    85    1
   132    82    83    1
   133   146   145    2
   134   132   130   ar
   135    83    84    2
   136   145   144    1
   137   131   129   ar
   138   142   140    1
   139   122   121    2
   140   130   128   ar
   141   144   143    1
   142   129   128   ar
   143   128   127    1
   144   140   139    1
   145   121   120    1
   146   121   123   am
   147   120   119    1
   148   124   123    1
   149   124   127    1
   150   124   125    1
   151   139   141    1
   152   139   136    1
   153   135   125   am
   154   135   136    1
   155   125   126    2
   156   136   137    1
   157   138   137    2
