@<TRIPOS>MOLECULE
tmp/1xu3B00.pdb
 119 113 0 0 0
SMALL
GASTEIGER

@<TRIPOS>ATOM
      1  N         78.9670   89.8910   43.9900 N.3    81  LYS81      -0.1245
      2  CA        79.2370   89.1600   42.7520 C.3    81  LYS81       0.1561
      3  C         79.1120   87.6530   42.9470 C.2    81  LYS81       0.2260
      4  O         78.6290   86.9410   42.0630 O.2    81  LYS81      -0.2867
      5  CB        80.6360   89.4940   42.2170 C.3    81  LYS81       0.0271
      6  CG        80.8180   90.9680   41.8450 C.3    81  LYS81       0.0035
      7  CD        82.2120   91.2400   41.2800 C.3    81  LYS81       0.0206
      8  CE        82.4030   90.5340   39.9520 C.3    81  LYS81       0.1093
      9  NZ        83.6780   90.9100   39.2890 N.3    81  LYS81      -0.1314
     10  N         75.4690   86.3510   43.2400 N.3    84  GLU84      -0.1231
     11  CA        74.9100   86.1970   41.9010 C.3    84  GLU84       0.1699
     12  C         75.4210   84.9200   41.2530 C.2    84  GLU84       0.2592
     13  O         74.6480   84.1250   40.7110 O.2    84  GLU84      -0.2718
     14  CB        75.2920   87.3950   41.0290 C.3    84  GLU84       0.0402
     15  CG        74.6820   88.6880   41.5120 C.3    84  GLU84       0.1161
     16  CD        73.1990   88.5380   41.7690 C.2    84  GLU84       0.3649
     17  OE1       72.4540   88.2930   40.8020 O.co2  84  GLU84      -0.2457
     18  OE2       72.7770   88.6550   42.9400 O.co2  84  GLU84      -0.2457
     19  N         76.7340   84.7330   41.3140 N.am   85  THR85      -0.1953
     20  CA        77.3850   83.5610   40.7490 C.3    85  THR85       0.1897
     21  C         76.7770   82.2330   41.2190 C.2    85  THR85       0.2313
     22  O         76.6100   81.3000   40.4310 O.2    85  THR85      -0.2863
     23  CB        78.8860   83.5500   41.1140 C.3    85  THR85       0.1794
     24  OG1       79.5160   84.7080   40.5630 O.3    85  THR85      -0.2208
     25  CG2       79.5620   82.2960   40.5800 C.3    85  THR85       0.0378
     26  N         73.7410   80.7000   39.4240 N.3    88  VAL88      -0.1245
     27  CA        74.0370   79.8700   38.2550 C.3    88  VAL88       0.1561
     28  C         74.7360   78.5530   38.5970 C.2    88  VAL88       0.2260
     29  O         74.3250   77.4780   38.1500 O.2    88  VAL88      -0.2867
     30  CB        74.9460   80.6150   37.2420 C.3    88  VAL88       0.0252
     31  CG1       75.2570   79.7010   36.0490 C.3    88  VAL88       0.0019
     32  CG2       74.2690   81.8830   36.7620 C.3    88  VAL88       0.0019
     33  N         72.9020   80.9590   27.9750 N.3   163  LEU163     -0.1245
     34  CA        73.8910   80.1150   28.6420 C.3   163  LEU163      0.1561
     35  C         73.2860   78.8050   29.1600 C.2   163  LEU163      0.2260
     36  O         73.9810   77.7910   29.2750 O.2   163  LEU163     -0.2867
     37  CB        74.5590   80.8840   29.7880 C.3   163  LEU163      0.0270
     38  CG        75.3750   82.1180   29.3800 C.3   163  LEU163      0.0019
     39  CD1       75.9750   82.7720   30.6250 C.3   163  LEU163      0.0001
     40  CD2       76.4810   81.7100   28.4130 C.3   163  LEU163      0.0001
     41  N         84.6920   81.5930   33.2600 N.3   271  MET271     -0.1230
     42  CA        83.9590   82.8430   33.2870 C.3   271  MET271      0.1702
     43  C         83.3200   83.0440   34.6540 C.2   271  MET271      0.2592
     44  O         83.4160   84.1220   35.2470 O.2   271  MET271     -0.2718
     45  CB        82.8920   82.8060   32.1860 C.3   271  MET271      0.0401
     46  CG        81.8890   83.9450   32.1800 C.3   271  MET271      0.0596
     47  SD        80.7980   83.8320   30.7160 S.3   271  MET271     -0.1393
     48  CE        79.5940   82.6170   31.2560 C.3   271  MET271      0.0692
     49  N         82.6740   82.0000   35.1600 N.am  272  LEU272     -0.1980
     50  CA        82.0110   82.0850   36.4560 C.3   272  LEU272      0.1596
     51  C         83.0010   82.3800   37.5680 C.2   272  LEU272      0.2287
     52  O         82.7260   83.1800   38.4620 O.2   272  LEU272     -0.2864
     53  CB        81.2570   80.7860   36.7520 C.3   272  LEU272      0.0297
     54  CG        80.0300   80.5910   35.8640 C.3   272  LEU272      0.0022
     55  CD1       79.4440   79.2070   36.0560 C.3   272  LEU272      0.0001
     56  CD2       79.0020   81.6700   36.2010 C.3   272  LEU272      0.0001
     57  N         85.0580   86.0590   36.5080 N.3   275  TYR275     -0.1227
     58  CA        84.1680   87.2060   36.4120 C.3   275  TYR275      0.1736
     59  C         83.0560   87.2590   37.4490 C.2   275  TYR275      0.2596
     60  O         82.4080   88.2910   37.6030 O.2   275  TYR275     -0.2718
     61  CB        83.5680   87.3060   35.0070 C.3   275  TYR275      0.0548
     62  CG        84.5910   87.6660   33.9670 C.ar  275  TYR275     -0.0200
     63  CD1       85.3140   86.6760   33.3050 C.ar  275  TYR275     -0.0009
     64  CD2       84.8760   89.0040   33.6770 C.ar  275  TYR275     -0.0009
     65  CE1       86.2970   87.0010   32.3750 C.ar  275  TYR275      0.0417
     66  CE2       85.8620   89.3430   32.7510 C.ar  275  TYR275      0.0417
     67  CZ        86.5670   88.3300   32.1020 C.ar  275  TYR275      0.1957
     68  OH        87.5380   88.6460   31.1810 O.3   275  TYR275     -0.2866
     69  N         82.8410   86.1630   38.1690 N.am  276  GLY276     -0.1957
     70  CA        81.7860   86.1440   39.1730 C.3   276  GLY276      0.1869
     71  C         82.2680   86.3110   40.6000 C.2   276  GLY276      0.2309
     72  O         81.5220   86.0920   41.5540 O.2   276  GLY276     -0.2863
     73  N         82.4350   85.9680   28.2300 N.3   330  TYR330     -0.1241
     74  CA        81.8470   86.9400   29.1410 C.3   330  TYR330      0.1605
     75  C         81.4030   88.1970   28.3980 C.2   330  TYR330      0.2264
     76  O         80.4280   88.8320   28.7830 O.2   330  TYR330     -0.2867
     77  CB        82.8180   87.3150   30.2660 C.3   330  TYR330      0.0534
     78  CG        82.1450   88.0940   31.3740 C.ar  330  TYR330     -0.0201
     79  CD1       81.1230   87.5210   32.1380 C.ar  330  TYR330     -0.0009
     80  CD2       82.4950   89.4160   31.6320 C.ar  330  TYR330     -0.0009
     81  CE1       80.4680   88.2500   33.1290 C.ar  330  TYR330      0.0417
     82  CE2       81.8490   90.1550   32.6210 C.ar  330  TYR330      0.0417
     83  CZ        80.8340   89.5710   33.3680 C.ar  330  TYR330      0.1957
     84  OH        80.1900   90.3190   34.3470 O.3   330  TYR330     -0.2866
     85  N         78.0600   87.4080   27.2810 N.3   333  ALA333     -0.1245
     86  CA        77.1690   87.2670   28.4210 C.3   333  ALA333      0.1562
     87  C         76.7760   88.6380   28.9630 C.2   333  ALA333      0.2260
     88  O         75.6070   88.8800   29.2720 O.2   333  ALA333     -0.2867
     89  CB        77.8370   86.4530   29.5070 C.3   333  ALA333      0.0290
     90  N         70.4120   86.8420   36.7800 N.3   342  PHE342     -0.1227
     91  CA        71.4330   87.2280   37.7410 C.3   342  PHE342      0.1736
     92  C         72.0320   88.5770   37.3610 C.2   342  PHE342      0.2595
     93  O         71.8490   89.0560   36.2420 O.2   342  PHE342     -0.2718
     94  CB        72.5220   86.1640   37.7430 C.3   342  PHE342      0.0547
     95  CG        72.8970   85.6980   36.3640 C.ar  342  PHE342     -0.0202
     96  CD1       73.7370   86.4680   35.5560 C.ar  342  PHE342     -0.0042
     97  CD2       72.3810   84.5170   35.8570 C.ar  342  PHE342     -0.0042
     98  CE1       74.0570   86.0610   34.2570 C.ar  342  PHE342     -0.0003
     99  CE2       72.6930   84.1020   34.5590 C.ar  342  PHE342     -0.0003
    100  CZ        73.5360   84.8790   33.7590 C.ar  342  PHE342     -0.0000
    101  N         72.7640   89.1800   38.2900 N.am  343  ARG343     -0.1966
    102  CA        73.3640   90.4730   38.0420 C.3   343  ARG343      0.1729
    103  C         74.8520   90.3630   37.7460 C.2   343  ARG343      0.2616
    104  O         75.5890   89.6730   38.4500 O.2   343  ARG343     -0.2715
    105  CB        73.1120   91.3770   39.2450 C.3   343  ARG343      0.0348
    106  CG        71.6400   91.4660   39.5940 C.3   343  ARG343      0.0492
    107  CD        71.4440   91.4290   41.0910 C.3   343  ARG343      0.2205
    108  NE        72.0510   92.5940   41.6900 N.pl3 343  ARG343     -0.0865
    109  CZ        72.6870   92.5960   42.8530 C.cat 343  ARG343      0.5346
    110  NH1       72.8010   91.4760   43.5590 N.pl3 343  ARG343      0.1354
    111  NH2       73.2170   93.7290   43.2970 N.pl3 343  ARG343      0.1354
    112  N         75.2850   91.0470   36.6920 N.am  344  LEU344     -0.1977
    113  CA        76.6840   91.0230   36.2870 C.3   344  LEU344      0.1596
    114  C         77.4090   92.3260   36.6040 C.2   344  LEU344      0.2287
    115  O         76.8080   93.4010   36.6160 O.2   344  LEU344     -0.2864
    116  CB        76.7850   90.7320   34.7930 C.3   344  LEU344      0.0297
    117  CG        76.1820   89.3980   34.3460 C.3   344  LEU344      0.0022
    118  CD1       76.3750   89.2020   32.8390 C.3   344  LEU344      0.0001
    119  CD2       76.8500   88.2690   35.1290 C.3   344  LEU344      0.0001
@<TRIPOS>BOND
     1    85    86    1
     2    33    34    1
     3    73    74    1
     4    75    76    2
     5    75    74    1
     6    40    38    1
     7    86    87    1
     8    86    89    1
     9    34    35    1
    10    34    37    1
    11    87    88    2
    12    74    77    1
    13    35    36    2
    14    38    37    1
    15    38    39    1
    16    77    78    1
    17    47    48    1
    18    47    46    1
    19    68    67    1
    20    78    80   ar
    21    78    79   ar
    22    80    82   ar
    23    67    65   ar
    24    67    66   ar
    25    79    81   ar
    26    46    45    1
    27    45    42    1
    28    65    63   ar
    29    82    83   ar
    30    66    64   ar
    31   118   117    1
    32    81    83   ar
    33    41    42    1
    34    42    43    1
    35    63    62   ar
    36    83    84    1
    37    64    62   ar
    38   100    98   ar
    39   100    99   ar
    40    62    61    1
    41    98    96   ar
    42   117   116    1
    43   117   119    1
    44    99    97   ar
    45    43    49   am
    46    43    44    2
    47   116   113    1
    48    61    58    1
    49    49    50    1
    50    96    95   ar
    51    97    95   ar
    52    54    55    1
    53    54    56    1
    54    54    53    1
    55    31    30    1
    56    93    92    2
    57   113   114    1
    58   113   112    1
    59    95    94    1
    60    58    57    1
    61    58    59    1
    62    50    53    1
    63    50    51    1
    64   114   115    2
    65   112   103   am
    66    32    30    1
    67    90    91    1
    68    30    27    1
    69    92    91    1
    70    92   101   am
    71    59    60    2
    72    59    69   am
    73    51    52    2
    74    91    94    1
    75   103   102    1
    76   103   104    2
    77   102   101    1
    78   102   105    1
    79    29    28    2
    80    69    70    1
    81    27    28    1
    82    27    26    1
    83    70    71    1
    84   105   106    1
    85     9     8    1
    86   106   107    1
    87     8     7    1
    88    22    21    2
    89    24    23    1
    90    25    23    1
    91    71    72    2
    92    13    12    2
    93    20    23    1
    94    20    21    1
    95    20    19    1
    96    17    16   ar
    97    14    15    1
    98    14    11    1
    99   107   108    1
   100    12    19   am
   101    12    11    1
   102     7     6    1
   103    15    16    1
   104   108   109    2
   105    16    18   ar
   106     6     5    1
   107    11    10    1
   108     4     3    2
   109     5     2    1
   110     2     3    1
   111     2     1    1
   112   109   111    1
   113   109   110    1
