@<TRIPOS>MOLECULE
tmp/1xu4A00.pdb
 138 130 0 0 0
SMALL
GASTEIGER

@<TRIPOS>ATOM
      1  N         32.2400   60.6640  -11.6720 N.3   103  PHE103     -0.1227
      2  CA        30.8230   60.3960  -11.8980 C.3   103  PHE103      0.1736
      3  C         30.6730   59.2990  -12.9470 C.2   103  PHE103      0.2596
      4  O         31.4710   59.2110  -13.8790 O.2   103  PHE103     -0.2718
      5  CB        30.1260   61.6640  -12.4030 C.3   103  PHE103      0.0547
      6  CG        30.4230   61.9800  -13.8510 C.ar  103  PHE103     -0.0202
      7  CD1       29.6430   61.4290  -14.8750 C.ar  103  PHE103     -0.0042
      8  CD2       31.5210   62.7720  -14.1940 C.ar  103  PHE103     -0.0042
      9  CE1       29.9540   61.6540  -16.2150 C.ar  103  PHE103     -0.0003
     10  CE2       31.8470   63.0060  -15.5370 C.ar  103  PHE103     -0.0003
     11  CZ        31.0650   62.4460  -16.5530 C.ar  103  PHE103     -0.0000
     12  N         29.6450   58.4730  -12.7900 N.am  104  GLY104     -0.1942
     13  CA        29.3830   57.4090  -13.7420 C.3   104  GLY104      0.2014
     14  C         30.4120   56.2990  -13.8140 C.2   104  GLY104      0.2640
     15  O         30.4020   55.5170  -14.7640 O.2   104  GLY104     -0.2714
     16  N         31.3050   56.2110  -12.8320 N.am  105  SER105     -0.1935
     17  CA        32.3040   55.1550  -12.8600 C.3   105  SER105      0.2055
     18  C         31.7260   53.8220  -12.4040 C.2   105  SER105      0.2644
     19  O         32.3540   52.7770  -12.5830 O.2   105  SER105     -0.2714
     20  CB        33.5410   55.5340  -12.0300 C.3   105  SER105      0.2130
     21  OG        33.2040   56.0340  -10.7510 O.3   105  SER105     -0.2179
     22  N         30.5240   53.8600  -11.8320 N.am  106  GLY106     -0.1939
     23  CA        29.8600   52.6420  -11.3970 C.3   106  GLY106      0.2014
     24  C         29.8890   52.3510   -9.9100 C.2   106  GLY106      0.2639
     25  O         29.7480   51.1990   -9.5030 O.2   106  GLY106     -0.2714
     26  N         30.0670   53.3860   -9.0960 N.am  107  LYS107     -0.1963
     27  CA        30.1210   53.2220   -7.6510 C.3   107  LYS107      0.1728
     28  C         28.7730   52.7260   -7.1560 C.2   107  LYS107      0.2617
     29  O         28.6870   51.8120   -6.3340 O.2   107  LYS107     -0.2715
     30  CB        30.4520   54.5570   -6.9760 C.3   107  LYS107      0.0311
     31  CG        31.7410   55.2080   -7.4480 C.3   107  LYS107      0.0038
     32  CD        32.0420   56.4900   -6.6570 C.3   107  LYS107      0.0206
     33  CE        31.0540   57.6070   -6.9640 C.3   107  LYS107      0.1093
     34  NZ        31.2310   58.1110   -8.3580 N.3   107  LYS107     -0.1314
     35  N         27.7180   53.3410   -7.6660 N.am  108  THR108     -0.1937
     36  CA        26.3650   52.9750   -7.2860 C.3   108  THR108      0.2028
     37  C         26.0210   51.5810   -7.8010 C.2   108  THR108      0.2642
     38  O         25.3630   50.8060   -7.1090 O.2   108  THR108     -0.2714
     39  CB        25.3720   54.0340   -7.8060 C.3   108  THR108      0.1808
     40  OG1       25.5580   55.2390   -7.0590 O.3   108  THR108     -0.2208
     41  CG2       23.9310   53.5670   -7.6590 C.3   108  THR108      0.0379
     42  N         26.4920   51.2560   -9.0010 N.am  109  GLN109     -0.1976
     43  CA        26.2480   49.9350   -9.5860 C.3   109  GLN109      0.1601
     44  C         26.8350   48.8510   -8.6800 C.2   109  GLN109      0.2287
     45  O         26.2380   47.7920   -8.4950 O.2   109  GLN109     -0.2864
     46  CB        26.9000   49.8150  -10.9730 C.3   109  GLN109      0.0394
     47  CG        26.4560   50.8520  -12.0000 C.3   109  GLN109      0.0908
     48  CD        24.9600   50.8860  -12.1780 C.2   109  GLN109      0.2608
     49  OE1       24.3530   49.9030  -12.5970 O.2   109  GLN109     -0.2717
     50  NE2       24.3510   52.0210  -11.8550 N.am  109  GLN109     -0.0878
     51  N         22.0300   60.2490   -1.7770 N.3   147  GLU147     -0.1245
     52  CA        21.7860   61.1410   -2.9130 C.3   147  GLU147      0.1567
     53  C         20.4640   60.8690   -3.6390 C.2   147  GLU147      0.2260
     54  O         20.0850   61.5950   -4.5620 O.2   147  GLU147     -0.2867
     55  CB        22.9540   61.0440   -3.9040 C.3   147  GLU147      0.0388
     56  CG        24.2010   60.3790   -3.3270 C.3   147  GLU147      0.1160
     57  CD        25.4780   60.7250   -4.0910 C.2   147  GLU147      0.3649
     58  OE1       25.5110   60.5830   -5.3310 O.co2 147  GLU147     -0.2457
     59  OE2       26.4580   61.1370   -3.4440 O.co2 147  GLU147     -0.2457
     60  N         19.7450   57.9720   -5.2880 N.3   149  THR149     -0.1218
     61  CA        19.9490   57.2000   -6.5080 C.3   149  THR149      0.1862
     62  C         19.7440   55.6880   -6.3840 C.2   149  THR149      0.2287
     63  O         20.2150   54.9230   -7.2290 O.2   149  THR149     -0.2866
     64  CB        21.3390   57.4540   -7.1280 C.3   149  THR149      0.1770
     65  OG1       22.3400   57.3710   -6.1120 O.3   149  THR149     -0.2211
     66  CG2       21.3750   58.8200   -7.8150 C.3   149  THR149      0.0375
     67  N         16.9750   48.4370  -11.0400 N.3   154  ARG154     -0.1245
     68  CA        18.3280   47.9370  -11.2410 C.3   154  ARG154      0.1563
     69  C         18.5700   46.6640  -10.4130 C.2   154  ARG154      0.2260
     70  O         19.2060   45.7220  -10.8860 O.2   154  ARG154     -0.2867
     71  CB        19.3270   49.0430  -10.8850 C.3   154  ARG154      0.0307
     72  CG        20.7350   48.8100  -11.3840 C.3   154  ARG154      0.0489
     73  CD        20.7930   48.6300  -12.8920 C.3   154  ARG154      0.2205
     74  NE        22.1680   48.4140  -13.3260 N.pl3 154  ARG154     -0.0865
     75  CZ        22.5290   47.6560  -14.3570 C.cat 154  ARG154      0.5346
     76  NH1       23.8100   47.5320  -14.6610 N.pl3 154  ARG154      0.1354
     77  NH2       21.6200   47.0150  -15.0770 N.pl3 154  ARG154      0.1354
     78  N         16.7240   43.9180  -12.2140 N.3   157  GLN157     -0.1245
     79  CA        17.4500   43.6120  -13.4380 C.3   157  GLN157      0.1566
     80  C         18.7130   42.8040  -13.1580 C.2   157  GLN157      0.2260
     81  O         18.9310   41.7430  -13.7480 O.2   157  GLN157     -0.2867
     82  CB        17.7900   44.9310  -14.1220 C.3   157  GLN157      0.0367
     83  CG        18.4430   44.8500  -15.4730 C.3   157  GLN157      0.0905
     84  CD        18.5490   46.2260  -16.0890 C.2   157  GLN157      0.2608
     85  OE1       18.9000   47.1940  -15.4100 O.2   157  GLN157     -0.2717
     86  NE2       18.2440   46.3270  -17.3740 N.am  157  GLN157     -0.0878
     87  N         26.0510   55.1820    0.4170 N.3   207  ASP207     -0.1239
     88  CA        26.2460   55.7930   -0.8890 C.3   207  ASP207      0.1674
     89  C         25.3800   57.0480   -0.9950 C.2   207  ASP207      0.2266
     90  O         24.1640   56.9340   -1.1140 O.2   207  ASP207     -0.2867
     91  CB        25.8550   54.7680   -1.9650 C.3   207  ASP207      0.1410
     92  CG        25.8600   55.3440   -3.3660 C.2   207  ASP207      0.3668
     93  OD1       26.7080   56.2130   -3.6680 O.co2 207  ASP207     -0.2456
     94  OD2       25.0230   54.9020   -4.1760 O.co2 207  ASP207     -0.2456
     95  N         33.3200   60.6840   -3.5490 N.3   253  GLN253     -0.1245
     96  CA        33.4890   61.4990   -4.7350 C.3   253  GLN253      0.1566
     97  C         34.9420   61.9590   -4.8390 C.2   253  GLN253      0.2260
     98  O         35.7440   61.7240   -3.9340 O.2   253  GLN253     -0.2867
     99  CB        32.5350   62.6890   -4.6660 C.3   253  GLN253      0.0367
    100  CG        31.1200   62.2790   -4.2660 C.3   253  GLN253      0.0905
    101  CD        30.0950   63.3850   -4.4620 C.2   253  GLN253      0.2608
    102  OE1       30.3510   64.5580   -4.1570 O.2   253  GLN253     -0.2717
    103  NE2       28.9160   63.0120   -4.9580 N.am  253  GLN253     -0.0878
    104  N         35.6240   49.4590  -17.2640 N.3   292  ARG292     -0.1245
    105  CA        35.9530   50.2050  -16.0540 C.3   292  ARG292      0.1563
    106  C         37.2270   49.6450  -15.4320 C.2   292  ARG292      0.2260
    107  O         37.5740   48.4840  -15.6350 O.2   292  ARG292     -0.2867
    108  CB        34.8150   50.0970  -15.0230 C.3   292  ARG292      0.0307
    109  CG        33.4700   50.6690  -15.4610 C.3   292  ARG292      0.0489
    110  CD        33.4820   52.1900  -15.4590 C.3   292  ARG292      0.2205
    111  NE        32.1690   52.7310  -15.8030 N.pl3 292  ARG292     -0.0865
    112  CZ        31.6910   52.8200  -17.0400 C.cat 292  ARG292      0.5346
    113  NH1       32.4200   52.4120  -18.0770 N.pl3 292  ARG292      0.1354
    114  NH2       30.4700   53.3020  -17.2340 N.pl3 292  ARG292      0.1354
    115  N         30.2860   47.3530  -16.9620 N.3   311  ILE311     -0.1231
    116  CA        28.9680   47.6090  -16.3880 C.3   311  ILE311      0.1692
    117  C         27.9820   47.4270  -17.5430 C.2   311  ILE311      0.2593
    118  O         27.9170   48.2520  -18.4540 O.2   311  ILE311     -0.2718
    119  CB        28.8080   49.0510  -15.8450 C.3   311  ILE311      0.0266
    120  CG1       30.0060   49.4420  -14.9700 C.3   311  ILE311      0.0019
    121  CG2       27.5000   49.1490  -15.0650 C.3   311  ILE311      0.0020
    122  CD1       30.2560   48.5210  -13.8030 C.3   311  ILE311      0.0001
    123  N         27.2270   46.3360  -17.5130 N.am  312  THR312     -0.1939
    124  CA        26.2630   46.0550  -18.5710 C.3   312  THR312      0.2028
    125  C         24.8750   45.9560  -17.9570 C.2   312  THR312      0.2642
    126  O         24.6800   46.3720  -16.8190 O.2   312  THR312     -0.2714
    127  CB        26.5930   44.7350  -19.2620 C.3   312  THR312      0.1808
    128  OG1       26.3640   43.6590  -18.3480 O.3   312  THR312     -0.2208
    129  CG2       28.0520   44.7150  -19.6870 C.3   312  THR312      0.0379
    130  N         23.9110   45.4130  -18.6980 N.am  313  GLU313     -0.1976
    131  CA        22.5600   45.2840  -18.1610 C.3   313  GLU313      0.1602
    132  C         22.5540   44.2730  -17.0210 C.2   313  GLU313      0.2287
    133  O         21.6750   44.2930  -16.1630 O.2   313  GLU313     -0.2864
    134  CB        21.5700   44.8580  -19.2530 C.3   313  GLU313      0.0415
    135  CG        22.1770   44.6530  -20.6400 C.3   313  GLU313      0.1163
    136  CD        22.8330   43.2930  -20.8060 C.2   313  GLU313      0.3649
    137  OE1       22.1240   42.2690  -20.6860 O.co2 313  GLU313     -0.2457
    138  OE2       24.0560   43.2450  -21.0610 O.co2 313  GLU313     -0.2457
@<TRIPOS>BOND
     1   138   136   ar
     2   136   137   ar
     3   136   135    1
     4   135   134    1
     5   129   127    1
     6   127   124    1
     7   127   128    1
     8   134   131    1
     9   130   131    1
    10   130   125   am
    11   124   125    1
    12   124   123    1
    13   118   117    2
    14   131   132    1
    15   113   112    1
    16   125   126    2
    17   117   123   am
    18   117   116    1
    19    86    84   am
    20   104   105    1
    21   114   112    1
    22   112   111    2
    23   132   133    2
    24   115   116    1
    25    11     9   ar
    26    11    10   ar
    27   116   119    1
    28     9     7   ar
    29    84    83    1
    30    84    85    2
    31   105   106    1
    32   105   108    1
    33   119   121    1
    34   119   120    1
    35   111   110    1
    36   107   106    2
    37    10     8   ar
    38    83    82    1
    39   109   110    1
    40   109   108    1
    41    77    75    1
    42   120   122    1
    43     7     6   ar
    44    15    14    2
    45    76    75    1
    46    75    74    2
    47     8     6   ar
    48    82    79    1
    49     4     3    2
    50     6     5    1
    51    14    13    1
    52    14    16   am
    53    81    80    2
    54    13    12    1
    55    79    80    1
    56    79    78    1
    57    74    73    1
    58     3    12   am
    59     3     2    1
    60    73    72    1
    61    17    16    1
    62    17    18    1
    63    17    20    1
    64    49    48    2
    65    19    18    2
    66    18    22   am
    67     5     2    1
    68    48    47    1
    69    48    50   am
    70    20    21    1
    71    47    46    1
    72     2     1    1
    73    22    23    1
    74    23    24    1
    75    72    71    1
    76    68    67    1
    77    68    71    1
    78    68    69    1
    79    46    43    1
    80    70    69    2
    81    24    25    2
    82    24    26   am
    83    43    42    1
    84    43    44    1
    85    26    27    1
    86    42    37   am
    87    44    45    2
    88    34    33    1
    89    66    64    1
    90    39    41    1
    91    39    36    1
    92    39    40    1
    93    37    36    1
    94    37    38    2
    95    35    36    1
    96    35    28   am
    97    27    28    1
    98    27    30    1
    99    31    30    1
   100    31    32    1
   101    63    62    2
   102    28    29    2
   103    64    61    1
   104    64    65    1
   105    33    32    1
   106    61    62    1
   107    61    60    1
   108    58    57   ar
   109   103   101   am
   110    97    96    1
   111    97    98    2
   112    96    99    1
   113    96    95    1
   114    99   100    1
   115    54    53    2
   116   101   100    1
   117   101   102    2
   118    94    92   ar
   119    57    59   ar
   120    57    56    1
   121    55    56    1
   122    55    52    1
   123    93    92   ar
   124    53    52    1
   125    92    91    1
   126    52    51    1
   127    91    88    1
   128    90    89    2
   129    89    88    1
   130    88    87    1
