@<TRIPOS>MOLECULE
tmp/1xucB00.pdb
 219 220 0 0 0
SMALL
GASTEIGER

@<TRIPOS>ATOM
      1  N         36.0660    9.7800   65.3770 N.3    37  LYS37      -0.1245
      2  CA        36.3910    8.7360   64.4140 C.3    37  LYS37       0.1561
      3  C         35.2930    8.6190   63.3630 C.2    37  LYS37       0.2260
      4  O         35.5760    8.4050   62.1870 O.2    37  LYS37      -0.2867
      5  CB        36.5680    7.3960   65.1370 C.3    37  LYS37       0.0271
      6  CG        37.0250    6.2470   64.2450 C.3    37  LYS37       0.0035
      7  CD        37.0870    4.9360   65.0280 C.3    37  LYS37       0.0206
      8  CE        37.4970    3.7660   64.1360 C.3    37  LYS37       0.1093
      9  NZ        38.8610    3.9540   63.5660 N.3    37  LYS37      -0.1314
     10  N         17.2560    2.8160   66.8390 N.3    82  LEU82      -0.1245
     11  CA        18.5180    2.9900   67.5550 C.3    82  LEU82       0.1561
     12  C         18.9290    4.4520   67.6340 C.2    82  LEU82       0.2260
     13  O         19.4880    4.9110   68.6360 O.2    82  LEU82      -0.2867
     14  CB        19.6370    2.2100   66.8630 C.3    82  LEU82       0.0270
     15  CG        19.4710    0.7010   66.6980 C.3    82  LEU82       0.0019
     16  CD1       20.6860    0.1480   65.9680 C.3    82  LEU82       0.0001
     17  CD2       19.3220    0.0450   68.0600 C.3    82  LEU82       0.0001
     18  N         27.8170   -0.5810   68.9910 N.3   112  ASN112     -0.1240
     19  CA        29.0260    0.2160   68.8470 C.3   112  ASN112      0.1653
     20  C         28.6330    1.6440   68.4630 C.2   112  ASN112      0.2266
     21  O         28.0880    1.8770   67.3850 O.2   112  ASN112     -0.2867
     22  CB        29.9350   -0.4080   67.7850 C.3   112  ASN112      0.1155
     23  CG        31.2750    0.2830   67.6930 C.2   112  ASN112      0.2627
     24  OD1       31.4070    1.3160   67.0400 O.2   112  ASN112     -0.2716
     25  ND2       32.2780   -0.2780   68.3620 N.am  112  ASN112     -0.0877
     26  N         30.4970    4.3050   67.6810 N.3   114  PHE114     -0.1227
     27  CA        31.2140    4.7810   66.5000 C.3   114  PHE114      0.1736
     28  C         30.5150    4.3460   65.2120 C.2   114  PHE114      0.2595
     29  O         30.2850    5.1560   64.3050 O.2   114  PHE114     -0.2718
     30  CB        32.6390    4.2280   66.4830 C.3   114  PHE114      0.0547
     31  CG        33.2170    4.1180   65.1000 C.ar  114  PHE114     -0.0202
     32  CD1       33.5390    5.2520   64.3750 C.ar  114  PHE114     -0.0042
     33  CD2       33.3780    2.8800   64.5030 C.ar  114  PHE114     -0.0042
     34  CE1       34.0080    5.1520   63.0770 C.ar  114  PHE114     -0.0003
     35  CE2       33.8470    2.7740   63.2040 C.ar  114  PHE114     -0.0003
     36  CZ        34.1610    3.9120   62.4900 C.ar  114  PHE114     -0.0000
     37  N         30.1780    3.0620   65.1370 N.am  115  LEU115     -0.1966
     38  CA        29.5360    2.5100   63.9530 C.3   115  LEU115      0.1728
     39  C         28.1830    3.1380   63.6600 C.2   115  LEU115      0.2616
     40  O         27.8980    3.5200   62.5250 O.2   115  LEU115     -0.2715
     41  CB        29.3790    0.9970   64.1000 C.3   115  LEU115      0.0311
     42  CG        28.7880    0.2810   62.8860 C.3   115  LEU115      0.0022
     43  CD1       29.6430    0.5670   61.6600 C.3   115  LEU115      0.0001
     44  CD2       28.7150   -1.2140   63.1660 C.3   115  LEU115      0.0001
     45  N         27.3460    3.2440   64.6840 N.am  116  VAL116     -0.1977
     46  CA        26.0310    3.8350   64.5000 C.3   116  VAL116      0.1596
     47  C         26.1680    5.3140   64.1460 C.2   116  VAL116      0.2287
     48  O         25.4320    5.8260   63.3090 O.2   116  VAL116     -0.2864
     49  CB        25.1740    3.6780   65.7640 C.3   116  VAL116      0.0276
     50  CG1       23.8420    4.3910   65.5840 C.3   116  VAL116      0.0022
     51  CG2       24.9450    2.1940   66.0470 C.3   116  VAL116      0.0022
     52  N         27.1410    5.8140   60.5270 N.3   119  HIS119     -0.1226
     53  CA        25.9540    5.5880   59.7080 C.3   119  HIS119      0.1752
     54  C         25.0550    6.8240   59.7390 C.2   119  HIS119      0.2595
     55  O         24.6530    7.3440   58.6940 O.2   119  HIS119     -0.2718
     56  CB        25.1910    4.3780   60.2480 C.3   119  HIS119      0.0759
     57  CG        23.9100    4.0830   59.5290 C.ar  119  HIS119      0.0818
     58  ND1       23.8300    3.1880   58.4830 N.ar  119  HIS119     -0.2268
     59  CD2       22.6500    4.5330   59.7350 C.ar  119  HIS119      0.1154
     60  CE1       22.5750    3.0950   58.0800 C.ar  119  HIS119      0.1986
     61  NE2       21.8390    3.9010   58.8230 N.ar  119  HIS119     -0.2212
     62  N         24.7430    7.2930   60.9420 N.am  120  GLU120     -0.1979
     63  CA        23.8850    8.4620   61.0970 C.3   120  GLU120      0.1602
     64  C         24.4480    9.7060   60.4260 C.2   120  GLU120      0.2287
     65  O         23.7070   10.4720   59.8070 O.2   120  GLU120     -0.2864
     66  CB        23.6340    8.7560   62.5770 C.3   120  GLU120      0.0415
     67  CG        22.8130    7.6950   63.2940 C.3   120  GLU120      0.1163
     68  CD        21.5460    7.3230   62.5430 C.2   120  GLU120      0.3649
     69  OE1       20.8620    8.2330   62.0270 O.co2 120  GLU120     -0.2457
     70  OE2       21.2270    6.1180   62.4790 O.co2 120  GLU120     -0.2457
     71  N         19.6070    5.2280   52.5390 N.3   129  HIS129     -0.1241
     72  CA        20.0030    3.8400   52.7510 C.3   129  HIS129      0.1621
     73  C         20.4430    3.1470   51.4660 C.2   129  HIS129      0.2264
     74  O         19.9180    3.4170   50.3840 O.2   129  HIS129     -0.2867
     75  CB        18.8500    3.0590   53.3760 C.3   129  HIS129      0.0745
     76  CG        18.6770    3.3100   54.8390 C.ar  129  HIS129      0.0817
     77  ND1       17.4460    3.2890   55.4570 N.ar  129  HIS129     -0.2268
     78  CD2       19.5840    3.5650   55.8110 C.ar  129  HIS129      0.1154
     79  CE1       17.6000    3.5220   56.7480 C.ar  129  HIS129      0.1986
     80  NE2       18.8870    3.6920   56.9890 N.ar  129  HIS129     -0.2212
     81  N         24.0520   -5.0930   51.2080 N.3   133  PRO133     -0.2102
     82  CA        24.1290   -5.6980   52.5420 C.3   133  PRO133      0.1504
     83  C         25.4100   -5.4340   53.3360 C.2   133  PRO133      0.2576
     84  O         25.3930   -5.4620   54.5670 O.2   133  PRO133     -0.2718
     85  CB        23.9330   -7.1850   52.2540 C.3   133  PRO133      0.0282
     86  CG        23.0260   -7.1720   51.0700 C.3   133  PRO133      0.0208
     87  CD        23.6530   -6.1000   50.2080 C.3   133  PRO133      0.0893
     88  N         26.5120   -5.1800   52.6400 N.am  134  GLY134     -0.1943
     89  CA        27.7700   -4.9410   53.3280 C.3   134  GLY134      0.2014
     90  C         28.1610   -3.4820   53.4710 C.2   134  GLY134      0.2639
     91  O         29.2360   -3.1680   53.9870 O.2   134  GLY134     -0.2714
     92  N         27.2890   -2.5860   53.0250 N.am  135  ALA135     -0.1963
     93  CA        27.5680   -1.1570   53.0990 C.3   135  ALA135      0.1728
     94  C         27.2750   -0.5640   54.4710 C.2   135  ALA135      0.2616
     95  O         26.4460   -1.0750   55.2240 O.2   135  ALA135     -0.2715
     96  CB        26.7650   -0.4180   52.0390 C.3   135  ALA135      0.0334
     97  N         27.9730    0.5190   54.7920 N.am  136  LEU136     -0.1977
     98  CA        27.7700    1.1990   56.0610 C.3   136  LEU136      0.1596
     99  C         26.3430    1.7290   56.1150 C.2   136  LEU136      0.2287
    100  O         25.6980    1.7000   57.1640 O.2   136  LEU136     -0.2864
    101  CB        28.7520    2.3650   56.1980 C.3   136  LEU136      0.0297
    102  CG        28.5060    3.2970   57.3910 C.3   136  LEU136      0.0022
    103  CD1       28.6440    2.5230   58.6960 C.3   136  LEU136      0.0001
    104  CD2       29.5010    4.4450   57.3490 C.3   136  LEU136      0.0001
    105  N         23.6610    0.4650   54.8960 N.3   138  PHE138     -0.1228
    106  CA        22.6160   -0.5510   54.7890 C.3   138  PHE138      0.1721
    107  C         21.7180   -0.2530   55.9930 C.2   138  PHE138      0.2437
    108  O         22.1970    0.2120   57.0230 O.2   138  PHE138     -0.2733
    109  CB        23.2240   -1.9520   54.8990 C.3   138  PHE138      0.0547
    110  CG        22.2620   -3.0630   54.5820 C.ar  138  PHE138     -0.0202
    111  CD1       21.7000   -3.1740   53.3200 C.ar  138  PHE138     -0.0042
    112  CD2       21.9290   -4.0010   55.5430 C.ar  138  PHE138     -0.0042
    113  CE1       20.8220   -4.2050   53.0250 C.ar  138  PHE138     -0.0003
    114  CE2       21.0520   -5.0330   55.2550 C.ar  138  PHE138     -0.0003
    115  CZ        20.4990   -5.1350   53.9960 C.ar  138  PHE138     -0.0000
    116  N         20.4060   -0.5060   55.8820 N.am  139  PRO139     -0.2718
    117  CA        19.4990   -0.2290   57.0010 C.3   139  PRO139      0.1535
    118  C         19.6120   -1.0690   58.2730 C.2   139  PRO139      0.2598
    119  O         19.1710   -0.6320   59.3370 O.2   139  PRO139     -0.2715
    120  CB        18.1190   -0.3480   56.3580 C.3   139  PRO139      0.0310
    121  CG        18.3370   -1.3820   55.3030 C.3   139  PRO139      0.0237
    122  CD        19.6540   -0.9560   54.6970 C.3   139  PRO139      0.0939
    123  N         20.2020   -2.2570   58.1800 N.am  140  ILE140     -0.1964
    124  CA        20.3140   -3.1270   59.3470 C.3   140  ILE140      0.1727
    125  C         21.7110   -3.2120   59.9640 C.2   140  ILE140      0.2616
    126  O         22.6880   -3.5240   59.2850 O.2   140  ILE140     -0.2715
    127  CB        19.8400   -4.5550   59.0040 C.3   140  ILE140      0.0290
    128  CG1       18.4510   -4.5010   58.3650 C.3   140  ILE140      0.0022
    129  CG2       19.7830   -5.4010   60.2630 C.3   140  ILE140      0.0023
    130  CD1       17.9100   -5.8590   57.9590 C.3   140  ILE140      0.0001
    131  N         21.7840   -2.9410   61.2650 N.am  141  TYR141     -0.1960
    132  CA        23.0370   -2.9830   62.0190 C.3   141  TYR141      0.1771
    133  C         23.6410   -4.3870   61.9590 C.2   141  TYR141      0.2620
    134  O         22.9890   -5.3620   62.3330 O.2   141  TYR141     -0.2715
    135  CB        22.7650   -2.6010   63.4790 C.3   141  TYR141      0.0574
    136  CG        23.9790   -2.6050   64.3850 C.ar  141  TYR141     -0.0198
    137  CD1       24.8250   -1.5040   64.4600 C.ar  141  TYR141     -0.0009
    138  CD2       24.2640   -3.7020   65.1850 C.ar  141  TYR141     -0.0009
    139  CE1       25.9200   -1.4980   65.3150 C.ar  141  TYR141      0.0417
    140  CE2       25.3530   -3.7050   66.0390 C.ar  141  TYR141      0.0417
    141  CZ        26.1760   -2.6030   66.1030 C.ar  141  TYR141      0.1957
    142  OH        27.2490   -2.6090   66.9710 O.3   141  TYR141     -0.2866
    143  N         24.8860   -4.4840   61.4950 N.am  142  THR142     -0.1937
    144  CA        25.5680   -5.7700   61.3790 C.3   142  THR142      0.2028
    145  C         27.0550   -5.6560   61.7220 C.2   142  THR142      0.2642
    146  O         27.9060   -5.6020   60.8340 O.2   142  THR142     -0.2714
    147  CB        25.4390   -6.3320   59.9500 C.3   142  THR142      0.1808
    148  OG1       24.0600   -6.3330   59.5580 O.3   142  THR142     -0.2208
    149  CG2       25.9790   -7.7510   59.8870 C.3   142  THR142      0.0379
    150  N         27.3550   -5.6320   63.0170 N.am  143  TYR143     -0.1959
    151  CA        28.7260   -5.5190   63.5130 C.3   143  TYR143      0.1771
    152  C         29.5570   -6.7540   63.1630 C.2   143  TYR143      0.2620
    153  O         29.2050   -7.8710   63.5420 O.2   143  TYR143     -0.2715
    154  CB        28.6860   -5.3190   65.0280 C.3   143  TYR143      0.0574
    155  CG        30.0330   -5.1630   65.6920 C.ar  143  TYR143     -0.0198
    156  CD1       30.4930   -6.1130   66.5950 C.ar  143  TYR143     -0.0009
    157  CD2       30.8210   -4.0470   65.4560 C.ar  143  TYR143     -0.0009
    158  CE1       31.6970   -5.9520   67.2500 C.ar  143  TYR143      0.0417
    159  CE2       32.0300   -3.8760   66.1060 C.ar  143  TYR143      0.0417
    160  CZ        32.4610   -4.8320   67.0040 C.ar  143  TYR143      0.1957
    161  OH        33.6500   -4.6620   67.6710 O.3   143  TYR143     -0.2866
    162  N         30.6660   -6.5470   62.4550 N.am  144  THR144     -0.1951
    163  CA        31.5340   -7.6500   62.0360 C.3   144  THR144      0.1897
    164  C         32.5710   -8.0790   63.0720 C.2   144  THR144      0.2313
    165  O         33.1820   -9.1390   62.9360 O.2   144  THR144     -0.2863
    166  CB        32.2850   -7.3100   60.7290 C.3   144  THR144      0.1794
    167  OG1       33.2310   -6.2640   60.9770 O.3   144  THR144     -0.2208
    168  CG2       31.3090   -6.8580   59.6540 C.3   144  THR144      0.0378
    169  N         35.5050   -6.8090   63.6340 N.3   146  LYS146     -0.1231
    170  CA        36.8820   -6.4790   63.2760 C.3   146  LYS146      0.1693
    171  C         37.3980   -5.2990   64.0980 C.2   146  LYS146      0.2593
    172  O         36.6200   -4.4480   64.5220 O.2   146  LYS146     -0.2718
    173  CB        36.9740   -6.1450   61.7850 C.3   146  LYS146      0.0285
    174  CG        36.7380   -7.3280   60.8620 C.3   146  LYS146      0.0035
    175  CD        37.7710   -8.4190   61.0960 C.3   146  LYS146      0.0206
    176  CE        37.6580   -9.5230   60.0570 C.3   146  LYS146      0.1093
    177  NZ        36.3050  -10.1390   60.0420 N.3   146  LYS146     -0.1314
    178  N         38.7100   -5.2550   64.3210 N.am  147  SER147     -0.1938
    179  CA        39.3200   -4.1760   65.0930 C.3   147  SER147      0.2055
    180  C         39.6130   -2.9410   64.2540 C.2   147  SER147      0.2643
    181  O         39.9640   -1.8910   64.7900 O.2   147  SER147     -0.2714
    182  CB        40.6170   -4.6510   65.7560 C.3   147  SER147      0.2130
    183  OG        40.3460   -5.3520   66.9570 O.3   147  SER147     -0.2179
    184  N         39.4690   -3.0680   62.9400 N.am  148  HIS148     -0.1959
    185  CA        39.7160   -1.9470   62.0380 C.3   148  HIS148      0.1787
    186  C         38.5080   -1.7170   61.1510 C.2   148  HIS148      0.2620
    187  O         37.9270   -2.6640   60.6230 O.2   148  HIS148     -0.2715
    188  CB        40.9390   -2.2270   61.1680 C.3   148  HIS148      0.0785
    189  CG        42.2160   -2.3230   61.9400 C.ar  148  HIS148      0.0821
    190  ND1       42.9880   -1.2220   62.2380 N.ar  148  HIS148     -0.2267
    191  CD2       42.8440   -3.3850   62.4970 C.ar  148  HIS148      0.1154
    192  CE1       44.0390   -1.6020   62.9430 C.ar  148  HIS148      0.1986
    193  NE2       43.9740   -2.9100   63.1150 N.ar  148  HIS148     -0.2212
    194  N         38.1310   -0.4550   60.9910 N.am  149  PHE149     -0.1960
    195  CA        36.9890   -0.1230   60.1570 C.3   149  PHE149      0.1771
    196  C         37.4330    0.3720   58.7910 C.2   149  PHE149      0.2619
    197  O         38.3260    1.2140   58.6760 O.2   149  PHE149     -0.2715
    198  CB        36.1190    0.9390   60.8340 C.3   149  PHE149      0.0574
    199  CG        34.9770    1.4140   59.9830 C.ar  149  PHE149     -0.0200
    200  CD1       35.1470    2.4640   59.0940 C.ar  149  PHE149     -0.0042
    201  CD2       33.7430    0.7870   60.0440 C.ar  149  PHE149     -0.0042
    202  CE1       34.1070    2.8800   58.2800 C.ar  149  PHE149     -0.0003
    203  CE2       32.6980    1.1970   59.2330 C.ar  149  PHE149     -0.0003
    204  CZ        32.8810    2.2450   58.3500 C.ar  149  PHE149     -0.0000
    205  N         36.8080   -0.1770   57.7570 N.am  150  MET150     -0.1977
    206  CA        37.1020    0.2060   56.3850 C.3   150  MET150      0.1605
    207  C         35.7840    0.5830   55.7230 C.2   150  MET150      0.2287
    208  O         34.8590   -0.2240   55.6610 O.2   150  MET150     -0.2864
    209  CB        37.7620   -0.9570   55.6410 C.3   150  MET150      0.0413
    210  CG        39.1390   -1.3220   56.1750 C.3   150  MET150      0.0598
    211  SD        39.8550   -2.7680   55.3700 S.3   150  MET150     -0.1393
    212  CE        39.4960   -4.0410   56.5870 C.3   150  MET150      0.0692
    213  N         33.1050    0.8070   53.1920 N.3   152  PRO152     -0.2116
    214  CA        32.7920    0.0350   51.9840 C.3   152  PRO152      0.1372
    215  C         32.7620    0.9260   50.7470 C.2   152  PRO152      0.2244
    216  O         32.3390    2.0800   50.8130 O.2   152  PRO152     -0.2868
    217  CB        31.4260   -0.5660   52.3060 C.3   152  PRO152      0.0268
    218  CG        31.5030   -0.7680   53.7910 C.3   152  PRO152      0.0207
    219  CD        32.1170    0.5400   54.2520 C.3   152  PRO152      0.0892
@<TRIPOS>BOND
     1    87    86    1
     2    87    81    1
     3    74    73    2
     4   215   216    2
     5   215   214    1
     6    86    85    1
     7    81    82    1
     8    73    72    1
     9   214   217    1
    10   214   213    1
    11    96    93    1
    12    85    82    1
    13   217   218    1
    14    71    72    1
    15    82    83    1
    16    88    89    1
    17    88    83   am
    18    72    75    1
    19   113   111   ar
    20   113   115   ar
    21    92    93    1
    22    92    90   am
    23    93    94    1
    24   213   219    1
    25   111   110   ar
    26    89    90    1
    27    83    84    2
    28    75    76    1
    29    90    91    2
    30   218   219    1
    31   115   114   ar
    32    94    97   am
    33    94    95    2
    34   110   109    1
    35   110   112   ar
    36   122   121    1
    37   122   116    1
    38   106   105    1
    39   106   109    1
    40   106   107    1
    41    97    98    1
    42    76    77   ar
    43    76    78   ar
    44   114   112   ar
    45   121   120    1
    46   211   210    1
    47   211   212    1
    48    77    79   ar
    49   209   210    1
    50   209   206    1
    51   208   207    2
    52   207   206    1
    53    78    80   ar
    54   116   107   am
    55   116   117    1
    56   107   108    2
    57    98    99    1
    58    98   101    1
    59    99   100    2
    60   101   102    1
    61   120   117    1
    62   206   205    1
    63    79    80   ar
    64   117   118    1
    65   104   102    1
    66   102   103    1
    67   205   196   am
    68   130   128    1
    69    60    58   ar
    70    60    61   ar
    71   123   118   am
    72   123   124    1
    73   118   119    2
    74   202   204   ar
    75   202   200   ar
    76   204   203   ar
    77   128   127    1
    78    58    57   ar
    79   197   196    2
    80    55    54    2
    81   196   195    1
    82    61    59   ar
    83   127   124    1
    84   127   129    1
    85   200   199   ar
    86   203   201   ar
    87   126   125    2
    88   124   125    1
    89    57    59   ar
    90    57    56    1
    91   148   147    1
    92   168   166    1
    93    53    54    1
    94    53    56    1
    95    53    52    1
    96    54    62   am
    97    65    64    2
    98   149   147    1
    99   147   144    1
   100   125   131   am
   101   199   201   ar
   102   199   198    1
   103   177   176    1
   104   176   175    1
   105   195   198    1
   106   195   194    1
   107    64    63    1
   108   187   186    2
   109   166   167    1
   110   166   163    1
   111   146   145    2
   112   174   175    1
   113   174   173    1
   114    62    63    1
   115   194   186   am
   116    63    66    1
   117   186   185    1
   118   188   189    1
   119   188   185    1
   120   131   132    1
   121   144   143    1
   122   144   145    1
   123   143   133   am
   124    43    42    1
   125   145   150   am
   126   173   170    1
   127   189   190   ar
   128   189   191   ar
   129   133   132    1
   130   133   134    2
   131   132   135    1
   132    69    68   ar
   133   163   162    1
   134   163   164    1
   135   185   184    1
   136     4     3    2
   137   190   192   ar
   138   162   152   am
   139    70    68   ar
   140    36    34   ar
   141    36    35   ar
   142   191   193   ar
   143    40    39    2
   144    68    67    1
   145    66    67    1
   146    42    44    1
   147    42    41    1
   148   165   164    2
   149   184   180   am
   150   192   193   ar
   151   150   151    1
   152    34    32   ar
   153   152   151    1
   154   152   153    2
   155    35    33   ar
   156   170   169    1
   157   170   171    1
   158    48    47    2
   159     3     2    1
   160   135   136    1
   161   151   154    1
   162     9     8    1
   163    39    38    1
   164    39    45   am
   165    38    41    1
   166    38    37    1
   167   171   178   am
   168   171   172    2
   169     8     7    1
   170    47    46    1
   171     6     7    1
   172     6     5    1
   173   180   181    2
   174   180   179    1
   175    29    28    2
   176   178   179    1
   177    32    31   ar
   178   136   137   ar
   179   136   138   ar
   180     2     5    1
   181     2     1    1
   182   137   139   ar
   183    46    45    1
   184    46    49    1
   185    33    31   ar
   186   154   155    1
   187   179   182    1
   188    31    30    1
   189    37    28   am
   190   138   140   ar
   191    28    27    1
   192   139   141   ar
   193   157   155   ar
   194   157   159   ar
   195    50    49    1
   196   155   156   ar
   197   182   183    1
   198    49    51    1
   199    16    15    1
   200   140   141   ar
   201   141   142    1
   202   159   160   ar
   203    30    27    1
   204    27    26    1
   205   156   158   ar
   206    15    14    1
   207    15    17    1
   208    10    11    1
   209    14    11    1
   210   160   158   ar
   211   160   161    1
   212    24    23    2
   213    21    20    2
   214    11    12    1
   215    12    13    2
   216    23    22    1
   217    23    25   am
   218    22    19    1
   219    20    19    1
   220    19    18    1
