@<TRIPOS>MOLECULE
tmp/1xudA00.pdb
 222 222 0 0 0
SMALL
GASTEIGER

@<TRIPOS>ATOM
      1  N        -13.1290   12.9110   47.9160 N.3    37  LYS37      -0.1245
      2  CA       -13.1590   13.8140   46.7700 C.3    37  LYS37       0.1561
      3  C        -11.8790   14.6480   46.7050 C.2    37  LYS37       0.2260
      4  O        -11.3570   14.9200   45.6200 O.2    37  LYS37      -0.2867
      5  CB       -14.3810   14.7290   46.8730 C.3    37  LYS37       0.0271
      6  CG       -14.6080   15.6350   45.6700 C.3    37  LYS37       0.0035
      7  CD       -15.8160   16.5370   45.9110 C.3    37  LYS37       0.0206
      8  CE       -16.0000   17.5590   44.8030 C.3    37  LYS37       0.1093
      9  NZ       -17.0760   18.5270   45.1600 N.3    37  LYS37      -0.1314
     10  N         -6.5940   27.4960   60.6460 N.3    82  LEU82      -0.1245
     11  CA        -7.7170   26.5880   60.4390 C.3    82  LEU82       0.1561
     12  C         -7.2750   25.1450   60.2560 C.2    82  LEU82       0.2260
     13  O         -8.0030   24.2160   60.6050 O.2    82  LEU82      -0.2867
     14  CB        -8.5560   27.0150   59.2330 C.3    82  LEU82       0.0270
     15  CG        -7.8250   27.2520   57.9140 C.3    82  LEU82       0.0019
     16  CD1       -8.6910   26.7960   56.7480 C.3    82  LEU82       0.0001
     17  CD2       -7.4760   28.7240   57.8010 C.3    82  LEU82       0.0001
     18  N        -20.1050   21.2750   54.3050 N.3   106  SER106     -0.1217
     19  CA       -20.0610   20.6870   52.9740 C.3   106  SER106      0.1889
     20  C        -20.7460   21.6760   52.0310 C.2   106  SER106      0.2288
     21  O        -21.1130   21.3340   50.9070 O.2   106  SER106     -0.2866
     22  CB       -20.7820   19.3350   52.9550 C.3   106  SER106      0.2089
     23  OG       -22.1190   19.4550   53.4020 O.3   106  SER106     -0.2183
     24  N        -15.3710   25.1180   53.8460 N.3   112  ASN112     -0.1240
     25  CA       -15.7660   23.9080   53.1360 C.3   112  ASN112      0.1653
     26  C        -14.6680   22.8670   53.3730 C.2   112  ASN112      0.2266
     27  O        -13.5370   23.0490   52.9390 O.2   112  ASN112     -0.2867
     28  CB       -15.9230   24.2180   51.6440 C.3   112  ASN112      0.1155
     29  CG       -16.3720   23.0170   50.8440 C.2   112  ASN112      0.2627
     30  OD1      -15.5610   22.1860   50.4440 O.2   112  ASN112     -0.2716
     31  ND2      -17.6790   22.9100   50.6210 N.am  112  ASN112     -0.0877
     32  N        -14.0570   19.8840   52.1070 N.3   114  PHE114     -0.1227
     33  CA       -13.4580   19.3680   50.8810 C.3   114  PHE114      0.1736
     34  C        -12.3800   20.3150   50.3550 C.2   114  PHE114      0.2595
     35  O        -11.2690   19.8950   50.0320 O.2   114  PHE114     -0.2718
     36  CB       -14.5230   19.1800   49.7940 C.3   114  PHE114      0.0547
     37  CG       -13.9700   19.2370   48.3960 C.ar  114  PHE114     -0.0202
     38  CD1      -13.1910   18.2060   47.8960 C.ar  114  PHE114     -0.0042
     39  CD2      -14.1890   20.3520   47.5980 C.ar  114  PHE114     -0.0042
     40  CE1      -12.6370   18.2850   46.6310 C.ar  114  PHE114     -0.0003
     41  CE2      -13.6350   20.4370   46.3300 C.ar  114  PHE114     -0.0003
     42  CZ       -12.8580   19.4010   45.8470 C.ar  114  PHE114     -0.0000
     43  N        -12.7150   21.5980   50.2710 N.am  115  LEU115     -0.1966
     44  CA       -11.7780   22.5920   49.7570 C.3   115  LEU115      0.1728
     45  C        -10.5210   22.6960   50.6180 C.2   115  LEU115      0.2616
     46  O         -9.4020   22.6900   50.1070 O.2   115  LEU115     -0.2715
     47  CB       -12.4690   23.9580   49.6670 C.3   115  LEU115      0.0311
     48  CG       -11.6330   25.0740   49.0380 C.3   115  LEU115      0.0022
     49  CD1      -11.1470   24.6320   47.6570 C.3   115  LEU115      0.0001
     50  CD2      -12.4700   26.3440   48.9370 C.3   115  LEU115      0.0001
     51  N        -10.7060   22.8030   51.9270 N.am  116  VAL116     -0.1977
     52  CA        -9.5680   22.8930   52.8330 C.3   116  VAL116      0.1596
     53  C         -8.7560   21.6000   52.7690 C.2   116  VAL116      0.2287
     54  O         -7.5290   21.6290   52.7450 O.2   116  VAL116     -0.2864
     55  CB       -10.0330   23.1410   54.2760 C.3   116  VAL116      0.0276
     56  CG1       -8.8420   23.0870   55.2260 C.3   116  VAL116      0.0022
     57  CG2      -10.7160   24.4980   54.3620 C.3   116  VAL116      0.0022
     58  N         -6.5800   21.3700   49.7400 N.3   119  HIS119     -0.1226
     59  CA        -5.4360   22.2430   49.9780 C.3   119  HIS119      0.1752
     60  C         -4.4100   21.5560   50.8750 C.2   119  HIS119      0.2595
     61  O         -3.2210   21.4910   50.5490 O.2   119  HIS119     -0.2718
     62  CB        -5.9120   23.5230   50.6580 C.3   119  HIS119      0.0759
     63  CG        -4.8250   24.5170   50.9190 C.ar  119  HIS119      0.0818
     64  ND1       -4.5170   25.5310   50.0370 N.ar  119  HIS119     -0.2268
     65  CD2       -3.9920   24.6700   51.9750 C.ar  119  HIS119      0.1154
     66  CE1       -3.5420   26.2680   50.5410 C.ar  119  HIS119      0.1986
     67  NE2       -3.2070   25.7670   51.7160 N.ar  119  HIS119     -0.2212
     68  N         -4.8700   21.0510   52.0150 N.am  120  GLU120     -0.1979
     69  CA        -3.9700   20.3840   52.9500 C.3   120  GLU120      0.1602
     70  C         -3.2640   19.1720   52.3370 C.2   120  GLU120      0.2287
     71  O         -2.0720   18.9570   52.5650 O.2   120  GLU120     -0.2864
     72  CB        -4.7290   19.9600   54.2100 C.3   120  GLU120      0.0415
     73  CG        -5.2430   21.1150   55.0590 C.3   120  GLU120      0.1163
     74  CD        -4.1750   22.1660   55.3370 C.2   120  GLU120      0.3649
     75  OE1       -2.9870   21.7990   55.4890 O.co2 120  GLU120     -0.2457
     76  OE2       -4.5280   23.3620   55.4180 O.co2 120  GLU120     -0.2457
     77  N          2.9730   26.8690   49.4120 N.3   129  HIS129     -0.1241
     78  CA         2.0440   27.8720   48.9020 C.3   129  HIS129      0.1621
     79  C          2.4640   28.4900   47.5730 C.2   129  HIS129      0.2264
     80  O          3.6490   28.5690   47.2530 O.2   129  HIS129     -0.2867
     81  CB         1.8390   28.9660   49.9480 C.3   129  HIS129      0.0745
     82  CG         1.0540   28.5060   51.1310 C.ar  129  HIS129      0.0817
     83  ND1        1.2280   29.0280   52.3940 N.ar  129  HIS129     -0.2268
     84  CD2        0.0860   27.5660   51.2410 C.ar  129  HIS129      0.1154
     85  CE1        0.4020   28.4280   53.2330 C.ar  129  HIS129      0.1986
     86  NE2       -0.3020   27.5370   52.5580 N.ar  129  HIS129     -0.2212
     87  N         -5.4780   32.6720   42.3320 N.3   134  GLY134     -0.1210
     88  CA        -6.5410   31.7280   42.0370 C.3   134  GLY134      0.1956
     89  C         -6.1790   30.2640   42.2250 C.2   134  GLY134      0.2612
     90  O         -6.9900   29.3810   41.9440 O.2   134  GLY134     -0.2717
     91  N         -4.9700   29.9990   42.7030 N.am  135  ALA135     -0.1965
     92  CA        -4.5200   28.6250   42.9110 C.3   135  ALA135      0.1728
     93  C         -5.1230   28.0080   44.1670 C.2   135  ALA135      0.2616
     94  O         -5.4650   28.7150   45.1160 O.2   135  ALA135     -0.2715
     95  CB        -2.9990   28.5840   43.0010 C.3   135  ALA135      0.0334
     96  N         -5.2680   26.6850   44.1530 N.am  136  LEU136     -0.1977
     97  CA        -5.7940   25.9610   45.3020 C.3   136  LEU136      0.1596
     98  C         -4.7930   26.1530   46.4340 C.2   136  LEU136      0.2287
     99  O         -5.1740   26.2780   47.6050 O.2   136  LEU136     -0.2864
    100  CB        -5.9220   24.4650   44.9890 C.3   136  LEU136      0.0297
    101  CG        -6.2380   23.5290   46.1660 C.3   136  LEU136      0.0022
    102  CD1       -7.5630   23.9260   46.8050 C.3   136  LEU136      0.0001
    103  CD2       -6.2990   22.0840   45.6740 C.3   136  LEU136      0.0001
    104  N         -2.9770   28.7400   47.0750 N.3   138  PHE138     -0.1228
    105  CA        -2.7700   30.1340   47.4820 C.3   138  PHE138      0.1721
    106  C         -2.8990   30.0450   49.0070 C.2   138  PHE138      0.2437
    107  O         -3.6540   29.2250   49.5190 O.2   138  PHE138     -0.2733
    108  CB        -3.8680   31.0350   46.9010 C.3   138  PHE138      0.0547
    109  CG        -3.6360   32.5110   47.1270 C.ar  138  PHE138     -0.0202
    110  CD1       -2.5290   33.1450   46.5840 C.ar  138  PHE138     -0.0042
    111  CD2       -4.5300   33.2600   47.8740 C.ar  138  PHE138     -0.0042
    112  CE1       -2.3170   34.5000   46.7820 C.ar  138  PHE138     -0.0003
    113  CE2       -4.3240   34.6180   48.0770 C.ar  138  PHE138     -0.0003
    114  CZ        -3.2160   35.2360   47.5300 C.ar  138  PHE138     -0.0000
    115  N         -2.1720   30.8830   49.7560 N.am  139  PRO139     -0.2718
    116  CA        -2.2700   30.8020   51.2210 C.3   139  PRO139      0.1535
    117  C         -3.5600   31.2420   51.9180 C.2   139  PRO139      0.2598
    118  O         -3.7860   30.8930   53.0800 O.2   139  PRO139     -0.2715
    119  CB        -1.0550   31.6040   51.6890 C.3   139  PRO139      0.0310
    120  CG        -0.8630   32.6070   50.5990 C.3   139  PRO139      0.0237
    121  CD        -1.0960   31.8020   49.3430 C.3   139  PRO139      0.0939
    122  N         -4.4140   31.9800   51.2200 N.am  140  ILE140     -0.1964
    123  CA        -5.6470   32.4700   51.8280 C.3   140  ILE140      0.1727
    124  C         -6.9310   31.8700   51.2650 C.2   140  ILE140      0.2616
    125  O         -7.1860   31.9390   50.0650 O.2   140  ILE140     -0.2715
    126  CB        -5.7150   34.0070   51.7150 C.3   140  ILE140      0.0290
    127  CG1       -4.4830   34.6170   52.3880 C.3   140  ILE140      0.0022
    128  CG2       -6.9760   34.5240   52.3810 C.3   140  ILE140      0.0023
    129  CD1       -4.2620   36.0770   52.0750 C.3   140  ILE140      0.0001
    130  N         -7.7340   31.2840   52.1520 N.am  141  TYR141     -0.1960
    131  CA        -9.0060   30.6640   51.7810 C.3   141  TYR141      0.1771
    132  C         -9.8420   31.6550   50.9830 C.2   141  TYR141      0.2620
    133  O        -10.2040   32.7190   51.4860 O.2   141  TYR141     -0.2715
    134  CB        -9.7710   30.2510   53.0400 C.3   141  TYR141      0.0574
    135  CG       -11.0490   29.4870   52.7760 C.ar  141  TYR141     -0.0198
    136  CD1      -11.0270   28.1250   52.5030 C.ar  141  TYR141     -0.0009
    137  CD2      -12.2800   30.1240   52.8310 C.ar  141  TYR141     -0.0009
    138  CE1      -12.2050   27.4160   52.2990 C.ar  141  TYR141      0.0417
    139  CE2      -13.4570   29.4280   52.6270 C.ar  141  TYR141      0.0417
    140  CZ       -13.4140   28.0750   52.3640 C.ar  141  TYR141      0.1957
    141  OH       -14.5910   27.3880   52.1770 O.3   141  TYR141     -0.2866
    142  N        -10.1550   31.2930   49.7440 N.am  142  THR142     -0.1937
    143  CA       -10.9220   32.1580   48.8580 C.3   142  THR142      0.2028
    144  C        -11.9770   31.3710   48.0760 C.2   142  THR142      0.2642
    145  O        -11.8080   31.1010   46.8870 O.2   142  THR142     -0.2714
    146  CB        -9.9860   32.8690   47.8540 C.3   142  THR142      0.1808
    147  OG1       -8.9130   33.5090   48.5640 O.3   142  THR142     -0.2208
    148  CG2      -10.7540   33.9130   47.0560 C.3   142  THR142      0.0379
    149  N        -13.0570   31.0030   48.7550 N.am  143  TYR143     -0.1959
    150  CA       -14.1480   30.2630   48.1310 C.3   143  TYR143      0.1771
    151  C        -14.7060   31.1270   46.9960 C.2   143  TYR143      0.2620
    152  O        -15.0570   32.2880   47.2110 O.2   143  TYR143     -0.2715
    153  CB       -15.2110   29.9670   49.1910 C.3   143  TYR143      0.0574
    154  CG       -16.3780   29.1300   48.7260 C.ar  143  TYR143     -0.0198
    155  CD1      -17.4810   29.7170   48.1220 C.ar  143  TYR143     -0.0009
    156  CD2      -16.3880   27.7550   48.9160 C.ar  143  TYR143     -0.0009
    157  CE1      -18.5630   28.9590   47.7250 C.ar  143  TYR143      0.0417
    158  CE2      -17.4660   26.9870   48.5190 C.ar  143  TYR143      0.0417
    159  CZ       -18.5520   27.5950   47.9250 C.ar  143  TYR143      0.1957
    160  OH       -19.6340   26.8420   47.5340 O.3   143  TYR143     -0.2866
    161  N        -14.7730   30.5660   45.7900 N.am  144  THR144     -0.1937
    162  CA       -15.2490   31.3110   44.6210 C.3   144  THR144      0.2028
    163  C        -16.7550   31.3010   44.3900 C.2   144  THR144      0.2643
    164  O        -17.2810   32.1640   43.6880 O.2   144  THR144     -0.2714
    165  CB       -14.5870   30.8010   43.3280 C.3   144  THR144      0.1808
    166  OG1      -15.0230   29.4610   43.0620 O.3   144  THR144     -0.2208
    167  CG2      -13.0730   30.8230   43.4620 C.3   144  THR144      0.0379
    168  N        -17.4480   30.3220   44.9580 N.am  145  GLY145     -0.1939
    169  CA       -18.8870   30.2570   44.7750 C.3   145  GLY145      0.2014
    170  C        -19.3250   29.4470   43.5680 C.2   145  GLY145      0.2639
    171  O        -20.5170   29.1980   43.3830 O.2   145  GLY145     -0.2714
    172  N        -18.3710   29.0380   42.7370 N.am  146  LYS146     -0.1963
    173  CA       -18.6920   28.2430   41.5580 C.3   146  LYS146      0.1728
    174  C        -19.2950   26.9090   41.9870 C.2   146  LYS146      0.2617
    175  O        -18.9900   26.3990   43.0660 O.2   146  LYS146     -0.2715
    176  CB       -17.4380   28.0070   40.7140 C.3   146  LYS146      0.0311
    177  CG       -16.8600   29.2770   40.1190 C.3   146  LYS146      0.0038
    178  CD       -17.8820   29.9770   39.2360 C.3   146  LYS146      0.0206
    179  CE       -17.3470   31.2960   38.7050 C.3   146  LYS146      0.1093
    180  NZ       -17.0230   32.2410   39.8110 N.3   146  LYS146     -0.1314
    181  N        -20.1480   26.3500   41.1350 N.am  147  SER147     -0.1936
    182  CA       -20.8160   25.0880   41.4280 C.3   147  SER147      0.2055
    183  C        -19.9530   23.8620   41.1540 C.2   147  SER147      0.2643
    184  O        -20.2180   22.7820   41.6780 O.2   147  SER147     -0.2714
    185  CB       -22.1040   24.9840   40.6120 C.3   147  SER147      0.2130
    186  OG       -21.8230   25.0330   39.2240 O.3   147  SER147     -0.2179
    187  N        -18.9210   24.0290   40.3370 N.am  148  HIS148     -0.1959
    188  CA       -18.0450   22.9170   39.9920 C.3   148  HIS148      0.1787
    189  C        -16.5900   23.2210   40.3220 C.2   148  HIS148      0.2620
    190  O        -16.0860   24.2910   39.9940 O.2   148  HIS148     -0.2715
    191  CB       -18.1780   22.6080   38.4970 C.3   148  HIS148      0.0785
    192  CG       -17.1860   21.6090   37.9890 C.ar  148  HIS148      0.0821
    193  ND1      -17.1830   20.2900   38.3900 N.ar  148  HIS148     -0.2267
    194  CD2      -16.1620   21.7380   37.1120 C.ar  148  HIS148      0.1154
    195  CE1      -16.2010   19.6490   37.7810 C.ar  148  HIS148      0.1986
    196  NE2      -15.5660   20.5050   37.0000 N.ar  148  HIS148     -0.2212
    197  N        -15.9160   22.2840   40.9790 N.am  149  PHE149     -0.1960
    198  CA       -14.5120   22.4880   41.3120 C.3   149  PHE149      0.1771
    199  C        -13.6230   21.9680   40.1950 C.2   149  PHE149      0.2619
    200  O        -13.8470   20.8810   39.6600 O.2   149  PHE149     -0.2715
    201  CB       -14.1330   21.7760   42.6170 C.3   149  PHE149      0.0574
    202  CG       -12.6610   21.8680   42.9480 C.ar  149  PHE149     -0.0200
    203  CD1      -11.7420   21.0060   42.3640 C.ar  149  PHE149     -0.0042
    204  CD2      -12.1910   22.8560   43.8000 C.ar  149  PHE149     -0.0042
    205  CE1      -10.3830   21.1320   42.6210 C.ar  149  PHE149     -0.0003
    206  CE2      -10.8350   22.9870   44.0610 C.ar  149  PHE149     -0.0003
    207  CZ        -9.9310   22.1270   43.4720 C.ar  149  PHE149     -0.0000
    208  N        -12.6140   22.7550   39.8460 N.am  150  MET150     -0.1977
    209  CA       -11.6560   22.3740   38.8190 C.3   150  MET150      0.1605
    210  C        -10.2860   22.8010   39.3260 C.2   150  MET150      0.2287
    211  O        -10.0760   23.9720   39.6360 O.2   150  MET150     -0.2864
    212  CB       -11.9620   23.0790   37.4950 C.3   150  MET150      0.0413
    213  CG       -11.0120   22.6850   36.3700 C.3   150  MET150      0.0598
    214  SD       -11.3790   23.4850   34.7940 S.3   150  MET150     -0.1393
    215  CE       -12.6100   22.3570   34.1240 C.3   150  MET150      0.0692
    216  N         -6.9310   24.3090   39.5110 N.3   152  PRO152     -0.2116
    217  CA        -6.2620   25.3490   38.7190 C.3   152  PRO152      0.1372
    218  C         -4.9740   24.8360   38.0960 C.2   152  PRO152      0.2244
    219  O         -4.3000   23.9870   38.6730 O.2   152  PRO152     -0.2868
    220  CB        -6.0100   26.4540   39.7450 C.3   152  PRO152      0.0268
    221  CG        -7.1630   26.2920   40.6880 C.3   152  PRO152      0.0207
    222  CD        -7.2020   24.7910   40.8750 C.3   152  PRO152      0.0892
@<TRIPOS>BOND
     1   215   214    1
     2   214   213    1
     3   213   212    1
     4   196   194   ar
     5   196   195   ar
     6   194   192   ar
     7   212   209    1
     8   195   193   ar
     9   192   193   ar
    10   192   191    1
    11   218   219    2
    12   218   217    1
    13   191   188    1
    14   179   178    1
    15   179   180    1
    16   217   216    1
    17   217   220    1
    18   209   210    1
    19   209   208    1
    20   186   185    1
    21   178   177    1
    22   210   211    2
    23   216   222    1
    24   200   199    2
    25   220   221    1
    26   208   199   am
    27   188   189    1
    28   188   187    1
    29   190   189    2
    30   177   176    1
    31   199   198    1
    32   189   197   am
    33   187   183   am
    34   185   182    1
    35   221   222    1
    36   176   173    1
    37   197   198    1
    38   181   182    1
    39   181   174   am
    40   183   182    1
    41   183   184    2
    42   198   201    1
    43   173   174    1
    44   173   172    1
    45    90    89    2
    46   174   175    2
    47    88    89    1
    48    88    87    1
    49    89    91   am
    50   203   205   ar
    51   203   202   ar
    52   201   202    1
    53   205   207   ar
    54    91    92    1
    55   172   170   am
    56    92    95    1
    57    92    93    1
    58   202   204   ar
    59   166   165    1
    60   165   167    1
    61   165   162    1
    62   171   170    2
    63   207   206   ar
    64   170   169    1
    65   164   163    2
    66   204   206   ar
    67    96    93   am
    68    96    97    1
    69    93    94    2
    70   163   162    1
    71   163   168   am
    72   162   161    1
    73   169   168    1
    74     8     9    1
    75     8     7    1
    76   100    97    1
    77   100   101    1
    78    97    98    1
    79     4     3    2
    80     6     7    1
    81     6     5    1
    82   103   101    1
    83   161   151   am
    84    42    41   ar
    85    42    40   ar
    86   101   102    1
    87    41    39   ar
    88    98    99    2
    89   110   112   ar
    90   110   109   ar
    91    40    38   ar
    92     3     2    1
    93     2     5    1
    94     2     1    1
    95   112   114   ar
    96   145   144    2
    97   108   109    1
    98   108   105    1
    99   151   152    2
   100   151   150    1
   101   148   146    1
   102   104   105    1
   103   109   111   ar
   104    80    79    2
   105   105   106    1
   106   114   113   ar
   107   160   159    1
   108    79    78    1
   109    39    37   ar
   110    49    48    1
   111   157   159   ar
   112   157   155   ar
   113   146   147    1
   114   146   143    1
   115   111   113   ar
   116    38    37   ar
   117   159   158   ar
   118   144   149   am
   119   144   143    1
   120   155   154   ar
   121   150   149    1
   122   150   153    1
   123    37    36    1
   124   158   156   ar
   125   154   156   ar
   126   154   153    1
   127   143   142    1
   128    78    77    1
   129    78    81    1
   130    50    48    1
   131   106   107    2
   132   106   115   am
   133    48    47    1
   134   121   115    1
   135   121   120    1
   136    47    44    1
   137    58    59    1
   138   142   132   am
   139   115   116    1
   140    44    43    1
   141    44    45    1
   142    36    33    1
   143    81    82    1
   144    59    62    1
   145    59    60    1
   146    35    34    2
   147    64    66   ar
   148    64    63   ar
   149   125   124    2
   150    46    45    2
   151    43    34   am
   152    34    33    1
   153    30    29    2
   154    66    67   ar
   155    61    60    2
   156   120   119    1
   157    45    51   am
   158    31    29   am
   159    62    63    1
   160    29    28    1
   161    60    68   am
   162    33    32    1
   163    21    20    2
   164    63    65   ar
   165   132   133    2
   166   132   131    1
   167    82    84   ar
   168    82    83   ar
   169   122   123    1
   170   122   117   am
   171   116   119    1
   172   116   117    1
   173    84    86   ar
   174   124   123    1
   175   124   130   am
   176    28    25    1
   177   126   123    1
   178   126   128    1
   179   126   127    1
   180    67    65   ar
   181   131   130    1
   182   131   134    1
   183   117   118    2
   184    51    52    1
   185    68    69    1
   186    20    19    1
   187   129   127    1
   188   141   140    1
   189   138   140   ar
   190   138   136   ar
   191    70    71    2
   192    70    69    1
   193   140   139   ar
   194    83    85   ar
   195   136   135   ar
   196    86    85   ar
   197   139   137   ar
   198    54    53    2
   199    53    52    1
   200   135   137   ar
   201   135   134    1
   202    52    55    1
   203    27    26    2
   204    69    72    1
   205    22    19    1
   206    22    23    1
   207    19    18    1
   208    25    26    1
   209    25    24    1
   210    72    73    1
   211    55    57    1
   212    55    56    1
   213    73    74    1
   214    74    76   ar
   215    74    75   ar
   216    16    15    1
   217    17    15    1
   218    15    14    1
   219    14    11    1
   220    12    11    1
   221    12    13    2
   222    11    10    1
