@<TRIPOS>MOLECULE
tmp/1xuoA00.pdb
 191 177 0 0 0
SMALL
GASTEIGER

@<TRIPOS>ATOM
      1  N         21.3080   46.6160   43.6540 N.3     3  VAL3       -0.1245
      2  CA        20.3000   45.5600   43.7750 C.3     3  VAL3        0.1561
      3  C         20.6620   44.4150   42.8390 C.2     3  VAL3        0.2260
      4  O         20.8940   44.6360   41.6540 O.2     3  VAL3       -0.2867
      5  CB        18.9010   46.0700   43.4110 C.3     3  VAL3        0.0252
      6  CG1       17.8830   44.9540   43.5870 C.3     3  VAL3        0.0019
      7  CG2       18.5250   47.2710   44.2610 C.3     3  VAL3        0.0019
      8  N         19.0350   41.2520   41.3410 N.3     5  LEU5       -0.1245
      9  CA        17.6600   40.7710   41.1580 C.3     5  LEU5        0.1561
     10  C         17.6560   39.5350   40.2630 C.2     5  LEU5        0.2260
     11  O         18.2140   39.5380   39.1810 O.2     5  LEU5       -0.2867
     12  CB        16.7760   41.8640   40.5590 C.3     5  LEU5        0.0270
     13  CG        15.2640   41.5950   40.4350 C.3     5  LEU5        0.0019
     14  CD1       14.4770   42.8970   40.4870 C.3     5  LEU5        0.0001
     15  CD2       14.9230   40.8220   39.1440 C.3     5  LEU5        0.0001
     16  N          8.1180   40.0580   29.2780 N.3    26  PHE26      -0.1241
     17  CA         7.9850   40.8470   30.5040 C.3    26  PHE26       0.1605
     18  C          9.3450   41.0310   31.1720 C.2    26  PHE26       0.2264
     19  O          9.6980   42.1330   31.5810 O.2    26  PHE26      -0.2867
     20  CB         6.9900   40.1710   31.4640 C.3    26  PHE26       0.0534
     21  CG         6.9200   40.8080   32.8170 C.ar   26  PHE26      -0.0203
     22  CD1        6.2500   42.0150   33.0030 C.ar   26  PHE26      -0.0042
     23  CD2        7.5200   40.2110   33.9070 C.ar   26  PHE26      -0.0042
     24  CE1        6.1780   42.6000   34.2570 C.ar   26  PHE26      -0.0003
     25  CE2        7.4400   40.7910   35.1640 C.ar   26  PHE26      -0.0003
     26  CZ         6.7890   41.9970   35.3290 C.ar   26  PHE26      -0.0000
     27  N         11.3310   44.6670   31.7980 N.3    30  VAL30      -0.1245
     28  CA        11.7780   45.1350   33.1120 C.3    30  VAL30       0.1561
     29  C         13.2610   45.4430   33.0620 C.2    30  VAL30       0.2260
     30  O         13.7040   46.4780   33.5800 O.2    30  VAL30      -0.2867
     31  CB        11.4640   44.1200   34.2330 C.3    30  VAL30       0.0252
     32  CG1       12.1500   44.4910   35.5570 C.3    30  VAL30       0.0019
     33  CG2        9.9680   44.0470   34.4140 C.3    30  VAL30       0.0019
     34  N         21.0440   48.1650   39.2170 N.3    39  TYR39      -0.1241
     35  CA        20.5200   46.7940   39.1860 C.3    39  TYR39       0.1605
     36  C         21.4080   45.8930   38.3160 C.2    39  TYR39       0.2264
     37  O         21.8670   46.2980   37.2570 O.2    39  TYR39      -0.2867
     38  CB        19.1050   46.7580   38.6100 C.3    39  TYR39       0.0534
     39  CG        18.0070   47.1890   39.5340 C.ar   39  TYR39      -0.0201
     40  CD1       17.8050   48.5390   39.8220 C.ar   39  TYR39      -0.0009
     41  CD2       17.1300   46.2580   40.0950 C.ar   39  TYR39      -0.0009
     42  CE1       16.7540   48.9520   40.6550 C.ar   39  TYR39       0.0417
     43  CE2       16.0930   46.6610   40.9390 C.ar   39  TYR39       0.0417
     44  CZ        15.9140   48.0070   41.2150 C.ar   39  TYR39       0.1957
     45  OH        14.8930   48.4400   42.0370 O.3    39  TYR39      -0.2866
     46  N         21.3670   44.4550   47.8750 N.3   104  THR104     -0.1218
     47  CA        20.0680   43.9650   48.3070 C.3   104  THR104      0.1862
     48  C         19.6890   42.8460   47.3570 C.2   104  THR104      0.2287
     49  O         19.8180   43.0170   46.1300 O.2   104  THR104     -0.2866
     50  CB        19.0430   45.0940   48.2020 C.3   104  THR104      0.1770
     51  OG1       19.3730   46.1330   49.1400 O.3   104  THR104     -0.2211
     52  CG2       17.6430   44.6170   48.6280 C.3   104  THR104      0.0375
     53  N         17.0120   40.3910   45.6300 N.3   106  VAL106     -0.1245
     54  CA        15.5770   40.3910   45.3090 C.3   106  VAL106      0.1561
     55  C         15.2840   39.2360   44.3720 C.2   106  VAL106      0.2260
     56  O         16.0500   38.9680   43.4680 O.2   106  VAL106     -0.2867
     57  CB        15.1380   41.7060   44.6390 C.3   106  VAL106      0.0252
     58  CG1       13.6590   41.6500   44.2500 C.3   106  VAL106      0.0019
     59  CG2       15.4140   42.9060   45.5420 C.3   106  VAL106      0.0019
     60  N         12.1070   37.7420   41.9640 N.3   108  ILE108     -0.1245
     61  CA        10.7560   37.8770   41.3810 C.3   108  ILE108      0.1561
     62  C         10.3660   36.5080   40.8420 C.2   108  ILE108      0.2260
     63  O         11.0580   35.9730   39.9760 O.2   108  ILE108     -0.2867
     64  CB        10.7460   38.9220   40.2500 C.3   108  ILE108      0.0252
     65  CG1       11.0900   40.3030   40.8160 C.3   108  ILE108      0.0019
     66  CG2        9.3660   38.9720   39.5930 C.3   108  ILE108      0.0019
     67  CD1       11.0300   41.4030   39.8080 C.3   108  ILE108      0.0001
     68  N         14.4290   39.4010   49.3980 N.3   128  ILE128     -0.1245
     69  CA        13.0970   39.9870   49.2720 C.3   128  ILE128      0.1561
     70  C         12.4180   39.2580   48.1080 C.2   128  ILE128      0.2260
     71  O         12.9530   39.2260   47.0050 O.2   128  ILE128     -0.2867
     72  CB        13.1690   41.4930   49.0430 C.3   128  ILE128      0.0252
     73  CG1       13.7580   42.1870   50.2830 C.3   128  ILE128      0.0019
     74  CG2       11.7970   42.0680   48.7570 C.3   128  ILE128      0.0019
     75  CD1       14.2410   43.5620   50.0310 C.3   128  ILE128      0.0001
     76  N          9.0370   38.6610   45.7050 N.3   130  TYR130     -0.1241
     77  CA         7.8020   39.1980   45.1210 C.3   130  TYR130      0.1605
     78  C          7.2690   38.1440   44.1660 C.2   130  TYR130      0.2264
     79  O          8.0190   37.6410   43.3430 O.2   130  TYR130     -0.2867
     80  CB         8.0970   40.4910   44.3880 C.3   130  TYR130      0.0534
     81  CG         6.8510   41.1980   43.9220 C.ar  130  TYR130     -0.0201
     82  CD1        6.1850   42.0900   44.7450 C.ar  130  TYR130     -0.0009
     83  CD2        6.3230   40.9790   42.6480 C.ar  130  TYR130     -0.0009
     84  CE1        5.0220   42.7450   44.3220 C.ar  130  TYR130      0.0417
     85  CE2        5.1660   41.6410   42.2250 C.ar  130  TYR130      0.0417
     86  CZ         4.5160   42.5130   43.0740 C.ar  130  TYR130      0.1957
     87  OH         3.3650   43.1900   42.6730 O.3   130  TYR130     -0.2866
     88  N          4.3730   36.8040   41.3400 N.3   132  ILE132     -0.1245
     89  CA         3.3020   37.0730   40.3810 C.3   132  ILE132      0.1561
     90  C          2.6830   35.7300   40.0150 C.2   132  ILE132      0.2260
     91  O          3.3950   34.8670   39.5120 O.2   132  ILE132     -0.2867
     92  CB         3.8620   37.7530   39.1150 C.3   132  ILE132      0.0252
     93  CG1        4.4870   39.0970   39.4960 C.3   132  ILE132      0.0019
     94  CG2        2.7530   37.9420   38.0800 C.3   132  ILE132      0.0019
     95  CD1        5.3150   39.7280   38.4520 C.3   132  ILE132      0.0001
     96  N          1.6440   43.2120   50.0150 N.3   157  GLU157     -0.1231
     97  CA         2.6160   43.9940   49.2820 C.3   157  GLU157      0.1699
     98  C          3.4960   43.1820   48.3360 C.2   157  GLU157      0.2592
     99  O          4.1610   43.7730   47.4720 O.2   157  GLU157     -0.2718
    100  CB         3.4870   44.8040   50.2550 C.3   157  GLU157      0.0402
    101  CG         2.6830   45.9090   50.9140 C.3   157  GLU157      0.1161
    102  CD         3.4980   46.8680   51.7560 C.2   157  GLU157      0.3649
    103  OE1        2.9940   47.2470   52.8350 O.co2 157  GLU157     -0.2457
    104  OE2        4.5960   47.2690   51.3140 O.co2 157  GLU157     -0.2457
    105  N          3.5200   41.8660   48.5030 N.am  158  PHE158     -0.1976
    106  CA         4.4730   41.0280   47.7870 C.3   158  PHE158      0.1639
    107  C          3.8860   39.9260   46.9510 C.2   158  PHE158      0.2290
    108  O          4.6320   39.1220   46.4010 O.2   158  PHE158     -0.2864
    109  CB         5.5290   40.4650   48.7370 C.3   158  PHE158      0.0560
    110  CG         6.4380   41.5360   49.2830 C.ar  158  PHE158     -0.0200
    111  CD1        6.2230   42.0520   50.5430 C.ar  158  PHE158     -0.0042
    112  CD2        7.4520   42.0770   48.5050 C.ar  158  PHE158     -0.0042
    113  CE1        7.0320   43.0650   51.0330 C.ar  158  PHE158     -0.0003
    114  CE2        8.2670   43.0850   48.9830 C.ar  158  PHE158     -0.0003
    115  CZ         8.0500   43.5760   50.2700 C.ar  158  PHE158     -0.0000
    116  N          1.0690   39.4200   43.7430 N.3   160  LYS160     -0.1245
    117  CA         0.1870   40.0110   42.7580 C.3   160  LYS160      0.1561
    118  C         -0.4570   38.9000   41.9540 C.2   160  LYS160      0.2260
    119  O          0.2320   38.0560   41.4280 O.2   160  LYS160     -0.2867
    120  CB         0.9470   40.9370   41.8490 C.3   160  LYS160      0.0271
    121  CG         0.0880   41.8330   40.9990 C.3   160  LYS160      0.0035
    122  CD        -0.6970   42.8090   41.8200 C.3   160  LYS160      0.0206
    123  CE        -0.6370   44.1850   41.2280 C.3   160  LYS160      0.1093
    124  NZ        -1.4630   45.1370   41.9890 N.3   160  LYS160     -0.1314
    125  N         -2.6980   37.9630   38.6600 N.3   162  LEU162     -0.1245
    126  CA        -3.1250   38.4540   37.3510 C.3   162  LEU162      0.1561
    127  C         -4.0960   37.4480   36.7410 C.2   162  LEU162      0.2260
    128  O         -3.8290   36.2560   36.7570 O.2   162  LEU162     -0.2867
    129  CB        -1.9330   38.6420   36.4220 C.3   162  LEU162      0.0270
    130  CG        -0.7900   39.5410   36.9030 C.3   162  LEU162      0.0019
    131  CD1        0.0970   39.9130   35.7350 C.3   162  LEU162      0.0001
    132  CD2       -1.3020   40.7080   37.6220 C.3   162  LEU162      0.0001
    133  N          0.4930   41.1090   32.1090 N.3   168  LEU168     -0.1245
    134  CA         1.9030   41.4090   32.3460 C.3   168  LEU168      0.1561
    135  C          2.2890   42.7030   31.6290 C.2   168  LEU168      0.2260
    136  O          2.9200   43.5820   32.2200 O.2   168  LEU168     -0.2867
    137  CB         2.8220   40.2800   31.8690 C.3   168  LEU168      0.0270
    138  CG         2.8310   39.0520   32.7760 C.3   168  LEU168      0.0019
    139  CD1        3.4830   37.9030   32.0440 C.3   168  LEU168      0.0001
    140  CD2        3.5120   39.3450   34.0920 C.3   168  LEU168      0.0001
    141  N          0.1040   45.8230   33.1070 N.3   171  LEU171     -0.1231
    142  CA         0.6010   46.3230   34.3790 C.3   171  LEU171      0.1693
    143  C          1.9640   46.9550   34.2480 C.2   171  LEU171      0.2592
    144  O          2.2830   47.9110   34.9480 O.2   171  LEU171     -0.2718
    145  CB         0.6630   45.2080   35.4250 C.3   171  LEU171      0.0284
    146  CG        -0.7280   44.7840   35.8580 C.3   171  LEU171      0.0019
    147  CD1       -0.6070   43.5350   36.6760 C.3   171  LEU171      0.0001
    148  CD2       -1.4070   45.8600   36.6290 C.3   171  LEU171      0.0001
    149  N          2.7950   46.4290   33.3590 N.am  172  PHE172     -0.1976
    150  CA         4.0480   47.0900   33.0820 C.3   172  PHE172      0.1639
    151  C          3.7870   48.5310   32.5690 C.2   172  PHE172      0.2290
    152  O          4.3710   49.4870   33.0650 O.2   172  PHE172     -0.2864
    153  CB         4.8740   46.3080   32.0690 C.3   172  PHE172      0.0560
    154  CG         6.1490   46.9820   31.7330 C.ar  172  PHE172     -0.0200
    155  CD1        7.2350   46.8510   32.5540 C.ar  172  PHE172     -0.0042
    156  CD2        6.2350   47.8140   30.6350 C.ar  172  PHE172     -0.0042
    157  CE1        8.4210   47.5000   32.2570 C.ar  172  PHE172     -0.0003
    158  CE2        7.4270   48.4690   30.3450 C.ar  172  PHE172     -0.0003
    159  CZ         8.4950   48.3150   31.1680 C.ar  172  PHE172     -0.0000
    160  N          2.4060   50.7480   35.5470 N.3   175  LEU175     -0.1245
    161  CA         3.1960   50.9340   36.7570 C.3   175  LEU175      0.1561
    162  C          4.6910   51.0870   36.5080 C.2   175  LEU175      0.2260
    163  O          5.4570   51.1150   37.4520 O.2   175  LEU175     -0.2867
    164  CB         2.9780   49.7390   37.7000 C.3   175  LEU175      0.0270
    165  CG         1.5820   49.5280   38.2520 C.3   175  LEU175      0.0019
    166  CD1        1.5380   48.2050   38.9760 C.3   175  LEU175      0.0001
    167  CD2        1.1920   50.6460   39.1300 C.3   175  LEU175      0.0001
    168  N          7.1000   53.0130   38.7210 N.3   178  LYS178     -0.1231
    169  CA         7.3200   52.4910   40.0700 C.3   178  LYS178      0.1693
    170  C          8.4260   51.4270   40.1620 C.2   178  LYS178      0.2591
    171  O          8.7890   51.0230   41.2570 O.2   178  LYS178     -0.2718
    172  CB         6.0350   51.8560   40.5800 C.3   178  LYS178      0.0285
    173  CG         4.8140   52.7620   40.5050 C.3   178  LYS178      0.0035
    174  CD         4.4770   53.4000   41.8170 C.3   178  LYS178      0.0206
    175  CE         3.3570   54.4260   41.6180 C.3   178  LYS178      0.1093
    176  NZ         2.5470   54.5960   42.8370 N.3   178  LYS178     -0.1314
    177  N          8.9260   50.9630   39.0230 N.am  179  ILE179     -0.1980
    178  CA         9.8980   49.8680   38.9960 C.3   179  ILE179      0.1595
    179  C         11.2870   50.2740   39.4690 C.2   179  ILE179      0.2287
    180  O         12.0380   49.4300   39.9600 O.2   179  ILE179     -0.2864
    181  CB         9.9620   49.2670   37.5850 C.3   179  ILE179      0.0276
    182  CG1        8.6580   48.5360   37.2980 C.3   179  ILE179      0.0022
    183  CG2       11.1290   48.2890   37.4190 C.3   179  ILE179      0.0022
    184  CD1        8.5280   48.1320   35.8390 C.3   179  ILE179      0.0001
    185  N         12.8500   51.2750   42.0620 N.3   181  VAL181     -0.1245
    186  CA        12.5260   51.4060   43.4780 C.3   181  VAL181      0.1561
    187  C         13.5470   52.2800   44.1900 C.2   181  VAL181      0.2260
    188  O         13.1520   53.1500   44.9760 O.2   181  VAL181     -0.2867
    189  CB        12.4090   50.0270   44.1700 C.3   181  VAL181      0.0252
    190  CG1       12.1700   50.1810   45.6750 C.3   181  VAL181      0.0019
    191  CG2       11.2700   49.2140   43.5460 C.3   181  VAL181      0.0019
@<TRIPOS>BOND
     1    16    17    1
     2   158   156   ar
     3   158   159   ar
     4    17    18    1
     5    17    20    1
     6   156   154   ar
     7   159   157   ar
     8    18    19    2
     9    20    21    1
    10   135   136    2
    11   135   134    1
    12   154   153    1
    13   154   155   ar
    14    27    28    1
    15   137   134    1
    16   137   138    1
    17   139   138    1
    18   153   150    1
    19   133   134    1
    20   157   155   ar
    21   151   152    2
    22   151   150    1
    23   138   140    1
    24    21    22   ar
    25    21    23   ar
    26    22    24   ar
    27    29    28    1
    28    29    30    2
    29   150   149    1
    30   141   142    1
    31    28    31    1
    32   149   143   am
    33    23    25   ar
    34    31    33    1
    35    31    32    1
    36   143   142    1
    37   143   144    2
    38    24    26   ar
    39   142   145    1
    40    25    26   ar
    41   145   146    1
    42   160   161    1
    43   131   130    1
    44   184   182    1
    45   146   148    1
    46   146   147    1
    47   129   130    1
    48   129   126    1
    49   162   161    1
    50   162   163    2
    51   127   128    2
    52   127   126    1
    53   161   164    1
    54   130   132    1
    55    37    36    2
    56   182   181    1
    57   126   125    1
    58   183   181    1
    59   181   178    1
    60   164   165    1
    61    94    92    1
    62   165   166    1
    63   165   167    1
    64    36    35    1
    65    95    93    1
    66    38    35    1
    67    38    39    1
    68   168   169    1
    69   178   177    1
    70   178   179    1
    71   177   170   am
    72    92    93    1
    73    92    89    1
    74    15    13    1
    75    11    10    2
    76    35    34    1
    77   179   180    2
    78    91    90    2
    79    39    40   ar
    80    39    41   ar
    81    66    64    1
    82    67    65    1
    83    40    42   ar
    84    63    62    2
    85    90    89    1
    86   169   170    1
    87   169   172    1
    88    41    43   ar
    89   170   171    2
    90    64    65    1
    91    64    61    1
    92    10     9    1
    93    89    88    1
    94    13    14    1
    95    13    12    1
    96   173   172    1
    97   173   174    1
    98    12     9    1
    99    42    44   ar
   100    62    61    1
   101    43    44   ar
   102   121   122    1
   103   121   120    1
   104     9     8    1
   105    44    45    1
   106   123   122    1
   107   123   124    1
   108    61    60    1
   109   119   118    2
   110   175   174    1
   111   175   176    1
   112     4     3    2
   113   120   117    1
   114   118   117    1
   115   185   186    1
   116    85    83   ar
   117    85    86   ar
   118    83    81   ar
   119    87    86    1
   120   117   116    1
   121     3     2    1
   122    86    84   ar
   123    79    78    2
   124     5     6    1
   125     5     2    1
   126     5     7    1
   127    56    55    2
   128   186   189    1
   129   186   187    1
   130   191   189    1
   131     1     2    1
   132    81    80    1
   133    81    82   ar
   134    78    77    1
   135   189   190    1
   136   187   188    2
   137    58    57    1
   138    84    82   ar
   139    55    54    1
   140    80    77    1
   141    57    54    1
   142    57    59    1
   143    77    76    1
   144    54    53    1
   145    49    48    2
   146   108   107    2
   147   107   106    1
   148    71    70    2
   149    48    47    1
   150    99    98    2
   151   106   105    1
   152   106   109    1
   153    46    47    1
   154    70    69    1
   155    50    47    1
   156    50    52    1
   157    50    51    1
   158    98   105   am
   159    98    97    1
   160   112   114   ar
   161   112   110   ar
   162   109   110    1
   163    74    72    1
   164   114   115   ar
   165    72    69    1
   166    72    73    1
   167    69    68    1
   168    97    96    1
   169    97   100    1
   170   110   111   ar
   171    75    73    1
   172   100   101    1
   173   115   113   ar
   174   111   113   ar
   175   101   102    1
   176   104   102   ar
   177   102   103   ar
