@<TRIPOS>MOLECULE
tmp/1xurA00.pdb
 206 207 0 0 0
SMALL
GASTEIGER

@<TRIPOS>ATOM
      1  N        -13.3010   13.0070   48.0850 N.3    37  LYS37      -0.1245
      2  CA       -13.3410   13.9200   46.9490 C.3    37  LYS37       0.1561
      3  C        -12.0550   14.7490   46.8840 C.2    37  LYS37       0.2260
      4  O        -11.5300   15.0160   45.8020 O.2    37  LYS37      -0.2867
      5  CB       -14.5630   14.8340   47.0750 C.3    37  LYS37       0.0271
      6  CG       -14.8120   15.7500   45.8840 C.3    37  LYS37       0.0035
      7  CD       -16.0270   16.6280   46.1520 C.3    37  LYS37       0.0206
      8  CE       -16.2700   17.6250   45.0330 C.3    37  LYS37       0.1093
      9  NZ       -17.3810   18.5430   45.4010 N.3    37  LYS37      -0.1314
     10  N         -6.8220   27.5670   60.8610 N.3    82  LEU82      -0.1245
     11  CA        -7.9370   26.6420   60.6770 C.3    82  LEU82       0.1561
     12  C         -7.4990   25.1980   60.4700 C.2    82  LEU82       0.2260
     13  O         -8.2320   24.2670   60.8060 O.2    82  LEU82      -0.2867
     14  CB        -8.8150   27.0710   59.4970 C.3    82  LEU82       0.0270
     15  CG        -8.1110   27.3550   58.1730 C.3    82  LEU82       0.0019
     16  CD1       -8.9780   26.8890   57.0130 C.3    82  LEU82       0.0001
     17  CD2       -7.8140   28.8410   58.0740 C.3    82  LEU82       0.0001
     18  N        -15.6420   25.2180   53.9800 N.3   112  ASN112     -0.1240
     19  CA       -16.0100   24.0150   53.2410 C.3   112  ASN112      0.1653
     20  C        -14.9010   22.9840   53.4810 C.2   112  ASN112      0.2266
     21  O        -13.7670   23.1750   53.0540 O.2   112  ASN112     -0.2867
     22  CB       -16.1420   24.3550   51.7500 C.3   112  ASN112      0.1155
     23  CG       -16.5480   23.1630   50.9100 C.2   112  ASN112      0.2627
     24  OD1      -15.7040   22.3890   50.4620 O.2   112  ASN112     -0.2716
     25  ND2      -17.8510   23.0040   50.6990 N.am  112  ASN112     -0.0877
     26  N        -14.2640   19.9750   52.2310 N.3   114  PHE114     -0.1227
     27  CA       -13.6450   19.4590   51.0130 C.3   114  PHE114      0.1736
     28  C        -12.5670   20.4120   50.5120 C.2   114  PHE114      0.2595
     29  O        -11.4320   20.0090   50.2510 O.2   114  PHE114     -0.2718
     30  CB       -14.6840   19.2760   49.9010 C.3   114  PHE114      0.0547
     31  CG       -14.1010   19.3720   48.5160 C.ar  114  PHE114     -0.0202
     32  CD1      -13.3160   18.3530   48.0020 C.ar  114  PHE114     -0.0042
     33  CD2      -14.2840   20.5180   47.7550 C.ar  114  PHE114     -0.0042
     34  CE1      -12.7190   18.4750   46.7590 C.ar  114  PHE114     -0.0003
     35  CE2      -13.6890   20.6490   46.5100 C.ar  114  PHE114     -0.0003
     36  CZ       -12.9050   19.6250   46.0120 C.ar  114  PHE114     -0.0000
     37  N        -12.9290   21.6840   50.3770 N.am  115  LEU115     -0.1966
     38  CA       -11.9900   22.6820   49.8770 C.3   115  LEU115      0.1728
     39  C        -10.7420   22.7970   50.7440 C.2   115  LEU115      0.2616
     40  O         -9.6210   22.7600   50.2370 O.2   115  LEU115     -0.2715
     41  CB       -12.6820   24.0450   49.7680 C.3   115  LEU115      0.0311
     42  CG       -11.8380   25.1430   49.1180 C.3   115  LEU115      0.0022
     43  CD1      -11.3730   24.6850   47.7370 C.3   115  LEU115      0.0001
     44  CD2      -12.6560   26.4220   49.0190 C.3   115  LEU115      0.0001
     45  N        -10.9290   22.9510   52.0520 N.am  116  VAL116     -0.1977
     46  CA        -9.7860   23.0570   52.9510 C.3   116  VAL116      0.1596
     47  C         -8.9560   21.7760   52.9060 C.2   116  VAL116      0.2287
     48  O         -7.7290   21.8220   52.8820 O.2   116  VAL116     -0.2864
     49  CB       -10.2350   23.3170   54.4020 C.3   116  VAL116      0.0276
     50  CG1       -9.0270   23.2810   55.3360 C.3   116  VAL116      0.0022
     51  CG2      -10.9220   24.6720   54.4890 C.3   116  VAL116      0.0022
     52  N         -6.7400   21.4560   49.8780 N.3   119  HIS119     -0.1226
     53  CA        -5.6030   22.3420   50.0950 C.3   119  HIS119      0.1752
     54  C         -4.5660   21.6810   51.0040 C.2   119  HIS119      0.2595
     55  O         -3.3840   21.6020   50.6630 O.2   119  HIS119     -0.2718
     56  CB        -6.0930   23.6330   50.7450 C.3   119  HIS119      0.0759
     57  CG        -5.0060   24.6150   51.0520 C.ar  119  HIS119      0.0818
     58  ND1       -4.7000   25.6720   50.2210 N.ar  119  HIS119     -0.2268
     59  CD2       -4.1710   24.7170   52.1130 C.ar  119  HIS119      0.1154
     60  CE1       -3.7240   26.3840   50.7570 C.ar  119  HIS119      0.1986
     61  NE2       -3.3860   25.8250   51.9060 N.ar  119  HIS119     -0.2212
     62  N         -5.0120   21.2180   52.1680 N.am  120  GLU120     -0.1979
     63  CA        -4.1090   20.5780   53.1200 C.3   120  GLU120      0.1602
     64  C         -3.4190   19.3450   52.5350 C.2   120  GLU120      0.2287
     65  O         -2.2260   19.1340   52.7510 O.2   120  GLU120     -0.2864
     66  CB        -4.8630   20.1940   54.3960 C.3   120  GLU120      0.0415
     67  CG        -5.4220   21.3740   55.1790 C.3   120  GLU120      0.1163
     68  CD        -4.3900   22.4660   55.4180 C.2   120  GLU120      0.3649
     69  OE1       -3.2100   22.1370   55.6700 O.co2 120  GLU120     -0.2457
     70  OE2       -4.7650   23.6570   55.3630 O.co2 120  GLU120     -0.2457
     71  N         -5.7140   32.7030   42.4710 N.3   134  GLY134     -0.1210
     72  CA        -6.7710   31.7530   42.1720 C.3   134  GLY134      0.1956
     73  C         -6.3950   30.2950   42.3670 C.2   134  GLY134      0.2612
     74  O         -7.1990   29.4040   42.0980 O.2   134  GLY134     -0.2717
     75  N         -5.1820   30.0440   42.8420 N.am  135  ALA135     -0.1965
     76  CA        -4.7210   28.6730   43.0500 C.3   135  ALA135      0.1728
     77  C         -5.3180   28.0390   44.3000 C.2   135  ALA135      0.2616
     78  O         -5.6540   28.7310   45.2610 O.2   135  ALA135     -0.2715
     79  CB        -3.2040   28.6460   43.1360 C.3   135  ALA135      0.0334
     80  N         -5.4640   26.7180   44.2730 N.am  136  LEU136     -0.1977
     81  CA        -5.9900   25.9980   45.4230 C.3   136  LEU136      0.1596
     82  C         -4.9960   26.1910   46.5590 C.2   136  LEU136      0.2287
     83  O         -5.3850   26.3120   47.7250 O.2   136  LEU136     -0.2864
     84  CB        -6.1210   24.5020   45.1130 C.3   136  LEU136      0.0297
     85  CG        -6.4310   23.5910   46.3080 C.3   136  LEU136      0.0022
     86  CD1       -7.7610   23.9950   46.9380 C.3   136  LEU136      0.0001
     87  CD2       -6.4750   22.1360   45.8500 C.3   136  LEU136      0.0001
     88  N         -3.1640   28.7880   47.1810 N.3   138  PHE138     -0.1228
     89  CA        -2.9700   30.1780   47.5960 C.3   138  PHE138      0.1721
     90  C         -3.1590   30.0870   49.1150 C.2   138  PHE138      0.2437
     91  O         -3.9850   29.3160   49.5940 O.2   138  PHE138     -0.2733
     92  CB        -4.0420   31.0790   46.9730 C.3   138  PHE138      0.0547
     93  CG        -3.8360   32.5520   47.2340 C.ar  138  PHE138     -0.0202
     94  CD1       -2.7280   33.2110   46.7310 C.ar  138  PHE138     -0.0042
     95  CD2       -4.7600   33.2740   47.9720 C.ar  138  PHE138     -0.0042
     96  CE1       -2.5420   34.5650   46.9570 C.ar  138  PHE138     -0.0003
     97  CE2       -4.5810   34.6300   48.2040 C.ar  138  PHE138     -0.0003
     98  CZ        -3.4700   35.2740   47.6940 C.ar  138  PHE138     -0.0000
     99  N         -2.4050   30.8710   49.8900 N.am  139  PRO139     -0.2718
    100  CA        -2.5390   30.8080   51.3520 C.3   139  PRO139      0.1535
    101  C         -3.8500   31.2160   52.0290 C.2   139  PRO139      0.2598
    102  O         -4.1340   30.7630   53.1430 O.2   139  PRO139     -0.2715
    103  CB        -1.3520   31.6420   51.8400 C.3   139  PRO139      0.0310
    104  CG        -1.1300   32.6180   50.7240 C.3   139  PRO139      0.0237
    105  CD        -1.3000   31.7610   49.4950 C.3   139  PRO139      0.0939
    106  N         -4.6540   32.0410   51.3670 N.am  140  ILE140     -0.1964
    107  CA        -5.9000   32.5230   51.9550 C.3   140  ILE140      0.1727
    108  C         -7.1820   31.9490   51.3600 C.2   140  ILE140      0.2616
    109  O         -7.4270   32.0580   50.1590 O.2   140  ILE140     -0.2715
    110  CB        -5.9540   34.0660   51.8700 C.3   140  ILE140      0.0290
    111  CG1       -4.7300   34.6540   52.5780 C.3   140  ILE140      0.0022
    112  CG2       -7.2290   34.5850   52.5140 C.3   140  ILE140      0.0023
    113  CD1       -4.4860   36.1250   52.2890 C.3   140  ILE140      0.0001
    114  N         -7.9960   31.3460   52.2250 N.am  141  TYR141     -0.1960
    115  CA        -9.2740   30.7450   51.8450 C.3   141  TYR141      0.1771
    116  C        -10.0860   31.7370   51.0240 C.2   141  TYR141      0.2620
    117  O        -10.4180   32.8210   51.5030 O.2   141  TYR141     -0.2715
    118  CB       -10.0580   30.3670   53.1040 C.3   141  TYR141      0.0574
    119  CG       -11.3480   29.6170   52.8550 C.ar  141  TYR141     -0.0198
    120  CD1      -11.3470   28.2450   52.6230 C.ar  141  TYR141     -0.0009
    121  CD2      -12.5710   30.2730   52.8920 C.ar  141  TYR141     -0.0009
    122  CE1      -12.5340   27.5480   52.4430 C.ar  141  TYR141      0.0417
    123  CE2      -13.7600   29.5870   52.7100 C.ar  141  TYR141      0.0417
    124  CZ       -13.7350   28.2250   52.4890 C.ar  141  TYR141      0.1957
    125  OH       -14.9180   27.5460   52.3270 O.3   141  TYR141     -0.2866
    126  N        -10.4130   31.3530   49.7930 N.am  142  THR142     -0.1937
    127  CA       -11.1660   32.2110   48.8910 C.3   142  THR142      0.2028
    128  C        -12.2310   31.4180   48.1280 C.2   142  THR142      0.2642
    129  O        -12.0710   31.1200   46.9470 O.2   142  THR142     -0.2714
    130  CB       -10.2220   32.8900   47.8700 C.3   142  THR142      0.1808
    131  OG1       -9.1550   33.5510   48.5660 O.3   142  THR142     -0.2208
    132  CG2      -10.9860   33.9130   47.0310 C.3   142  THR142      0.0379
    133  N        -13.3130   31.0750   48.8190 N.am  143  TYR143     -0.1959
    134  CA       -14.4140   30.3300   48.2200 C.3   143  TYR143      0.1771
    135  C        -14.9810   31.1630   47.0690 C.2   143  TYR143      0.2620
    136  O        -15.3250   32.3300   47.2540 O.2   143  TYR143     -0.2715
    137  CB       -15.4720   30.0650   49.2930 C.3   143  TYR143      0.0574
    138  CG       -16.6460   29.2270   48.8510 C.ar  143  TYR143     -0.0198
    139  CD1      -17.8070   29.8210   48.3750 C.ar  143  TYR143     -0.0009
    140  CD2      -16.6030   27.8420   48.9330 C.ar  143  TYR143     -0.0009
    141  CE1      -18.8950   29.0590   48.0000 C.ar  143  TYR143      0.0417
    142  CE2      -17.6870   27.0710   48.5560 C.ar  143  TYR143      0.0417
    143  CZ       -18.8310   27.6860   48.0920 C.ar  143  TYR143      0.1957
    144  OH       -19.9190   26.9280   47.7260 O.3   143  TYR143     -0.2866
    145  N        -15.0690   30.5640   45.8830 N.am  144  THR144     -0.1937
    146  CA       -15.5590   31.2700   44.6970 C.3   144  THR144      0.2028
    147  C        -17.0660   31.2330   44.4810 C.2   144  THR144      0.2643
    148  O        -17.6080   32.0620   43.7500 O.2   144  THR144     -0.2714
    149  CB       -14.8960   30.7290   43.4160 C.3   144  THR144      0.1808
    150  OG1      -15.3180   29.3780   43.1900 O.3   144  THR144     -0.2208
    151  CG2      -13.3810   30.7710   43.5460 C.3   144  THR144      0.0379
    152  N        -17.7420   30.2690   45.0960 N.am  145  GLY145     -0.1939
    153  CA       -19.1820   30.1750   44.9340 C.3   145  GLY145      0.2014
    154  C        -19.6050   29.2730   43.7900 C.2   145  GLY145      0.2639
    155  O        -20.7780   28.9090   43.6800 O.2   145  GLY145     -0.2714
    156  N        -18.6550   28.9160   42.9310 N.am  146  LYS146     -0.1963
    157  CA       -18.9420   28.0430   41.8000 C.3   146  LYS146      0.1728
    158  C        -19.3400   26.6630   42.3080 C.2   146  LYS146      0.2617
    159  O        -18.8520   26.2110   43.3430 O.2   146  LYS146     -0.2715
    160  CB       -17.7160   27.9320   40.8890 C.3   146  LYS146      0.0311
    161  CG       -17.3220   29.2430   40.2230 C.3   146  LYS146      0.0038
    162  CD       -18.4550   29.7810   39.3600 C.3   146  LYS146      0.0206
    163  CE       -18.0910   31.1130   38.7210 C.3   146  LYS146      0.1093
    164  NZ       -17.8500   32.1720   39.7420 N.3   146  LYS146     -0.1314
    165  N        -20.2270   25.9970   41.5760 N.am  147  SER147     -0.1936
    166  CA       -20.6950   24.6750   41.9690 C.3   147  SER147      0.2055
    167  C        -19.7330   23.5560   41.5760 C.2   147  SER147      0.2643
    168  O        -19.5660   22.5860   42.3130 O.2   147  SER147     -0.2714
    169  CB       -22.0660   24.4020   41.3500 C.3   147  SER147      0.2130
    170  OG       -21.9890   24.4060   39.9350 O.3   147  SER147     -0.2179
    171  N        -19.1020   23.6890   40.4160 N.am  148  HIS148     -0.1959
    172  CA       -18.1770   22.6650   39.9430 C.3   148  HIS148      0.1787
    173  C        -16.7360   23.0080   40.2990 C.2   148  HIS148      0.2620
    174  O        -16.2580   24.0950   39.9850 O.2   148  HIS148     -0.2715
    175  CB       -18.3020   22.5140   38.4250 C.3   148  HIS148      0.0785
    176  CG       -17.3980   21.4720   37.8430 C.ar  148  HIS148      0.0821
    177  ND1      -17.6080   20.1200   38.0180 N.ar  148  HIS148     -0.2267
    178  CD2      -16.2750   21.5830   37.0940 C.ar  148  HIS148      0.1154
    179  CE1      -16.6550   19.4450   37.4010 C.ar  148  HIS148      0.1986
    180  NE2      -15.8330   20.3090   36.8320 N.ar  148  HIS148     -0.2212
    181  N        -16.0430   22.0880   40.9600 N.am  149  PHE149     -0.1960
    182  CA       -14.6530   22.3410   41.3110 C.3   149  PHE149      0.1771
    183  C        -13.7360   21.8830   40.1920 C.2   149  PHE149      0.2619
    184  O        -13.9110   20.8000   39.6340 O.2   149  PHE149     -0.2715
    185  CB       -14.2550   21.6210   42.6060 C.3   149  PHE149      0.0574
    186  CG       -12.7970   21.7870   42.9620 C.ar  149  PHE149     -0.0200
    187  CD1      -11.8230   20.9990   42.3630 C.ar  149  PHE149     -0.0042
    188  CD2      -12.3980   22.7740   43.8520 C.ar  149  PHE149     -0.0042
    189  CE1      -10.4790   21.1960   42.6420 C.ar  149  PHE149     -0.0003
    190  CE2      -11.0560   22.9770   44.1350 C.ar  149  PHE149     -0.0003
    191  CZ       -10.0960   22.1900   43.5300 C.ar  149  PHE149     -0.0000
    192  N        -12.7610   22.7200   39.8640 N.am  150  MET150     -0.1977
    193  CA       -11.7850   22.3910   38.8380 C.3   150  MET150      0.1605
    194  C        -10.4290   22.8410   39.3620 C.2   150  MET150      0.2287
    195  O        -10.2380   24.0180   39.6630 O.2   150  MET150     -0.2864
    196  CB       -12.1010   23.1100   37.5250 C.3   150  MET150      0.0413
    197  CG       -11.1370   22.7480   36.4020 C.3   150  MET150      0.0598
    198  SD       -11.5630   23.4780   34.8110 S.3   150  MET150     -0.1393
    199  CE       -12.6940   22.2360   34.1690 C.3   150  MET150      0.0692
    200  N         -7.0730   24.3730   39.6070 N.3   152  PRO152     -0.2116
    201  CA        -6.4010   25.4160   38.8250 C.3   152  PRO152      0.1372
    202  C         -5.1150   24.8980   38.2010 C.2   152  PRO152      0.2244
    203  O         -4.4450   24.0420   38.7750 O.2   152  PRO152     -0.2868
    204  CB        -6.1390   26.5090   39.8610 C.3   152  PRO152      0.0268
    205  CG        -7.2830   26.3410   40.8120 C.3   152  PRO152      0.0207
    206  CD        -7.3350   24.8390   40.9780 C.3   152  PRO152      0.0892
@<TRIPOS>BOND
     1   199   198    1
     2   198   197    1
     3   197   196    1
     4   180   178   ar
     5   180   179   ar
     6   178   176   ar
     7   179   177   ar
     8   196   193    1
     9   176   177   ar
    10   176   175    1
    11   202   203    2
    12   202   201    1
    13   175   172    1
    14   163   162    1
    15   163   164    1
    16   201   200    1
    17   201   204    1
    18   193   194    1
    19   193   192    1
    20   162   161    1
    21   194   195    2
    22   200   206    1
    23   184   183    2
    24   204   205    1
    25   192   183   am
    26   170   169    1
    27   172   173    1
    28   172   171    1
    29   174   173    2
    30   183   182    1
    31   161   160    1
    32   173   181   am
    33   171   167   am
    34   205   206    1
    35   160   157    1
    36   181   182    1
    37   182   185    1
    38   169   166    1
    39   165   166    1
    40   165   158   am
    41   167   166    1
    42   167   168    2
    43   157   158    1
    44   157   156    1
    45    74    73    2
    46    72    73    1
    47    72    71    1
    48   158   159    2
    49   187   189   ar
    50   187   186   ar
    51    73    75   am
    52   185   186    1
    53   189   191   ar
    54    75    76    1
    55   156   154   am
    56   186   188   ar
    57    76    79    1
    58    76    77    1
    59   150   149    1
    60   149   151    1
    61   149   146    1
    62   191   190   ar
    63   155   154    2
    64   148   147    2
    65   154   153    1
    66   188   190   ar
    67    80    77   am
    68    80    81    1
    69    77    78    2
    70   147   146    1
    71   147   152   am
    72   146   145    1
    73   153   152    1
    74     8     9    1
    75     8     7    1
    76    84    81    1
    77    84    85    1
    78    81    82    1
    79     4     3    2
    80    87    85    1
    81   145   135   am
    82     6     7    1
    83     6     5    1
    84    36    35   ar
    85    36    34   ar
    86    85    86    1
    87    35    33   ar
    88    82    83    2
    89    94    96   ar
    90    94    93   ar
    91    34    32   ar
    92     3     2    1
    93   129   128    2
    94     2     5    1
    95     2     1    1
    96    96    98   ar
    97    92    93    1
    98    92    89    1
    99   132   130    1
   100   135   136    2
   101   135   134    1
   102    88    89    1
   103    93    95   ar
   104    89    90    1
   105    98    97   ar
   106   144   143    1
   107    43    42    1
   108    33    31   ar
   109   130   131    1
   110   130   127    1
   111    95    97   ar
   112   141   143   ar
   113   141   139   ar
   114    32    31   ar
   115   143   142   ar
   116   128   133   am
   117   128   127    1
   118   134   133    1
   119   134   137    1
   120   139   138   ar
   121    31    30    1
   122   142   140   ar
   123   138   140   ar
   124   138   137    1
   125   127   126    1
   126    44    42    1
   127    90    91    2
   128    90    99   am
   129    42    41    1
   130   105    99    1
   131   105   104    1
   132    41    38    1
   133   126   116   am
   134    38    37    1
   135    38    39    1
   136    52    53    1
   137    99   100    1
   138    30    27    1
   139    53    56    1
   140    53    54    1
   141   109   108    2
   142    58    60   ar
   143    58    57   ar
   144    40    39    2
   145    29    28    2
   146    37    28   am
   147    24    23    2
   148    28    27    1
   149    55    54    2
   150    25    23   am
   151   104   103    1
   152    39    45   am
   153    56    57    1
   154    60    61   ar
   155    23    22    1
   156    54    62   am
   157    27    26    1
   158   116   117    2
   159   116   115    1
   160    57    59   ar
   161   100   103    1
   162   100   101    1
   163   108   107    1
   164   108   114   am
   165   106   107    1
   166   106   101   am
   167    22    19    1
   168   115   114    1
   169   115   118    1
   170   110   107    1
   171   110   112    1
   172   110   111    1
   173    61    59   ar
   174   101   102    2
   175    45    46    1
   176    62    63    1
   177   113   111    1
   178   125   124    1
   179   122   124   ar
   180   122   120   ar
   181   124   123   ar
   182    64    65    2
   183    64    63    1
   184   120   119   ar
   185   123   121   ar
   186   119   121   ar
   187   119   118    1
   188    48    47    2
   189    47    46    1
   190    46    49    1
   191    21    20    2
   192    63    66    1
   193    19    20    1
   194    19    18    1
   195    66    67    1
   196    49    51    1
   197    49    50    1
   198    67    68    1
   199    70    68   ar
   200    68    69   ar
   201    16    15    1
   202    17    15    1
   203    15    14    1
   204    14    11    1
   205    12    11    1
   206    12    13    2
   207    11    10    1
