@<TRIPOS>MOLECULE
tmp/1xuzA01.pdb
 144 133 0 0 0
SMALL
GASTEIGER

@<TRIPOS>ATOM
      1  N        100.7380  -14.4720   46.7880 N.3    24  GLU24      -0.1245
      2  CA       101.0330  -15.8850   46.9200 C.3    24  GLU24       0.1567
      3  C        100.5850  -16.6760   45.7120 C.2    24  GLU24       0.2260
      4  O         99.3900  -16.8200   45.4680 O.2    24  GLU24      -0.2867
      5  CB       100.3650  -16.4730   48.1520 C.3    24  GLU24       0.0388
      6  CG       100.5610  -17.9790   48.2310 C.3    24  GLU24       0.1160
      7  CD        99.5040  -18.6180   49.0640 C.2    24  GLU24       0.3649
      8  OE1       98.3650  -18.1170   49.0090 O.co2  24  GLU24      -0.2457
      9  OE2       99.7930  -19.6100   49.7590 O.co2  24  GLU24      -0.2457
     10  N        104.9590  -15.1360   47.6800 N.3    52  LYS52      -0.1245
     11  CA       104.9390  -16.2400   48.6120 C.3    52  LYS52       0.1561
     12  C        104.6690  -17.5210   47.8560 C.2    52  LYS52       0.2260
     13  O        103.9060  -17.5500   46.8940 O.2    52  LYS52      -0.2867
     14  CB       103.8560  -16.0460   49.6750 C.3    52  LYS52       0.0271
     15  CG       103.9920  -17.0010   50.8480 C.3    52  LYS52       0.0035
     16  CD       102.8600  -16.8300   51.8540 C.3    52  LYS52       0.0206
     17  CE       101.5840  -17.4980   51.3670 C.3    52  LYS52       0.1093
     18  NZ       101.7770  -18.9730   51.2550 N.3    52  LYS52      -0.1314
     19  N        104.3630  -22.0750   48.3960 N.3    54  GLN54      -0.1245
     20  CA       103.8750  -23.0900   49.3190 C.3    54  GLN54       0.1566
     21  C        104.8510  -24.2330   49.1350 C.2    54  GLN54       0.2260
     22  O        105.0700  -24.7000   48.0150 O.2    54  GLN54      -0.2867
     23  CB       102.4510  -23.5350   48.9760 C.3    54  GLN54       0.0367
     24  CG       101.3600  -22.6320   49.5450 C.3    54  GLN54       0.0905
     25  CD        99.9590  -23.1940   49.3330 C.2    54  GLN54       0.2608
     26  OE1       99.7090  -24.3690   49.5820 O.2    54  GLN54      -0.2717
     27  NE2       99.0400  -22.3490   48.8860 N.am   54  GLN54      -0.0878
     28  N        105.4240  -21.0240   52.6880 N.3   109  THR109     -0.1218
     29  CA       104.6650  -21.6250   53.7780 C.3   109  THR109      0.1862
     30  C        105.0190  -23.1010   53.8930 C.2   109  THR109      0.2287
     31  O        104.8870  -23.8480   52.9240 O.2   109  THR109     -0.2866
     32  CB       103.1390  -21.5370   53.5270 C.3   109  THR109      0.1770
     33  OG1      102.7360  -20.1640   53.4460 O.3   109  THR109     -0.2211
     34  CG2      102.3730  -22.2240   54.6540 C.3   109  THR109      0.0375
     35  N        104.4120  -26.9140   55.3660 N.3   111  PHE111     -0.1241
     36  CA       103.2740  -27.6870   55.8460 C.3   111  PHE111      0.1605
     37  C        103.7650  -28.9390   56.5390 C.2   111  PHE111      0.2264
     38  O        102.9750  -29.8120   56.8930 O.2   111  PHE111     -0.2867
     39  CB       102.3440  -28.0700   54.6890 C.3   111  PHE111      0.0534
     40  CG       101.7470  -26.8920   53.9810 C.ar  111  PHE111     -0.0203
     41  CD1      102.4540  -26.2300   52.9860 C.ar  111  PHE111     -0.0042
     42  CD2      100.4810  -26.4290   54.3240 C.ar  111  PHE111     -0.0042
     43  CE1      101.9140  -25.1300   52.3420 C.ar  111  PHE111     -0.0003
     44  CE2       99.9290  -25.3210   53.6820 C.ar  111  PHE111     -0.0003
     45  CZ       100.6480  -24.6730   52.6890 C.ar  111  PHE111     -0.0000
     46  N        105.8900  -18.0450   56.9010 N.3   128  LYS128     -0.1245
     47  CA       104.4420  -17.9480   56.9330 C.3   128  LYS128      0.1561
     48  C        103.9200  -19.3010   57.3950 C.2   128  LYS128      0.2260
     49  O        104.3580  -20.3480   56.9100 O.2   128  LYS128     -0.2867
     50  CB       103.8910  -17.6330   55.5410 C.3   128  LYS128      0.0271
     51  CG       102.3740  -17.7440   55.4200 C.3   128  LYS128      0.0035
     52  CD       101.6670  -16.5750   56.0710 C.3   128  LYS128      0.0206
     53  CE       100.1800  -16.8470   56.2430 C.3   128  LYS128      0.1093
     54  NZ        99.4660  -17.0520   54.9610 N.3   128  LYS128     -0.1314
     55  N        100.4660  -21.2980   57.6470 N.3   130  GLY130     -0.1210
     56  CA        99.0840  -21.2710   57.2130 C.3   130  GLY130      0.1956
     57  C         98.0710  -21.5590   58.2990 C.2   130  GLY130      0.2613
     58  O         98.3820  -22.2120   59.2920 O.2   130  GLY130     -0.2717
     59  N         96.8480  -21.0850   58.0960 N.am  131  SER131     -0.1938
     60  CA        95.7760  -21.2830   59.0660 C.3   131  SER131      0.2055
     61  C         95.5950  -22.7400   59.4850 C.2   131  SER131      0.2644
     62  O         95.1920  -23.0190   60.6160 O.2   131  SER131     -0.2714
     63  CB        94.4640  -20.7350   58.5100 C.3   131  SER131      0.2130
     64  OG        94.5480  -19.3330   58.3290 O.3   131  SER131     -0.2179
     65  N         95.8940  -23.6640   58.5730 N.am  132  GLY132     -0.1939
     66  CA        95.7630  -25.0760   58.8850 C.3   132  GLY132      0.2014
     67  C         96.7700  -25.5300   59.9310 C.2   132  GLY132      0.2638
     68  O         96.5300  -26.4890   60.6670 O.2   132  GLY132     -0.2714
     69  N         97.8990  -24.8300   60.0060 N.am  133  GLU133     -0.1977
     70  CA        98.9500  -25.1660   60.9610 C.3   133  GLU133      0.1602
     71  C         98.9780  -24.2380   62.1730 C.2   133  GLU133      0.2287
     72  O         99.8450  -24.3670   63.0350 O.2   133  GLU133     -0.2864
     73  CB       100.3170  -25.1260   60.2740 C.3   133  GLU133      0.0415
     74  CG       100.5430  -26.2110   59.2380 C.3   133  GLU133      0.1163
     75  CD        99.4730  -26.2360   58.1600 C.2   133  GLU133      0.3649
     76  OE1       98.6540  -27.1820   58.1560 O.co2 133  GLU133     -0.2457
     77  OE2       99.4510  -25.3090   57.3230 O.co2 133  GLU133     -0.2457
     78  N         98.8000  -17.0400   60.0180 N.3   153  SER153     -0.1217
     79  CA        97.4010  -16.8960   59.6270 C.3   153  SER153      0.1889
     80  C         96.6250  -17.5490   60.7530 C.2   153  SER153      0.2288
     81  O         97.0890  -18.5260   61.3370 O.2   153  SER153     -0.2866
     82  CB        97.1140  -17.6140   58.3090 C.3   153  SER153      0.2089
     83  OG        97.5050  -16.8150   57.2060 O.3   153  SER153     -0.2183
     84  N         91.7740  -14.5140   59.0640 N.3   181  CYS181     -0.1235
     85  CA        91.5320  -15.2350   57.8180 C.3   181  CYS181      0.1677
     86  C         90.3250  -16.1660   57.9150 C.2   181  CYS181      0.2270
     87  O         89.8930  -16.5350   59.0080 O.2   181  CYS181     -0.2867
     88  CB        92.7880  -16.0480   57.4580 C.3   181  CYS181      0.0956
     89  SG        92.7460  -16.9950   55.9100 S.3   181  CYS181     -0.0801
     90  N         89.1450  -19.6250   55.7440 N.3   183  ASN183     -0.1240
     91  CA        89.5970  -20.5770   54.7390 C.3   183  ASN183      0.1653
     92  C         88.5490  -21.3280   53.9320 C.2   183  ASN183      0.2266
     93  O         88.3720  -22.5310   54.0870 O.2   183  ASN183     -0.2867
     94  CB        90.5620  -21.5680   55.3930 C.3   183  ASN183      0.1155
     95  CG        91.8240  -20.8950   55.9080 C.2   183  ASN183      0.2627
     96  OD1       92.8170  -20.7680   55.1870 O.2   183  ASN183     -0.2716
     97  ND2       91.7850  -20.4440   57.1550 N.am  183  ASN183     -0.0877
     98  N         87.3810  -21.4930   49.8160 N.3   185  TYR185     -0.1241
     99  CA        87.8020  -21.0570   48.4920 C.3   185  TYR185      0.1605
    100  C         86.7310  -21.1890   47.4180 C.2   185  TYR185      0.2264
    101  O         86.5290  -22.2690   46.8630 O.2   185  TYR185     -0.2867
    102  CB        89.0520  -21.8390   48.0850 C.3   185  TYR185      0.0534
    103  CG        90.0870  -21.9130   49.1880 C.ar  185  TYR185     -0.0201
    104  CD1       89.8750  -22.7080   50.3180 C.ar  185  TYR185     -0.0009
    105  CD2       91.2540  -21.1540   49.1290 C.ar  185  TYR185     -0.0009
    106  CE1       90.8010  -22.7400   51.3650 C.ar  185  TYR185      0.0417
    107  CE2       92.1870  -21.1780   50.1690 C.ar  185  TYR185      0.0417
    108  CZ        91.9540  -21.9700   51.2830 C.ar  185  TYR185      0.1957
    109  OH        92.8610  -21.9820   52.3190 O.3   185  TYR185     -0.2866
    110  N         94.5550  -12.2710   55.6840 N.3   212  SER212     -0.1217
    111  CA        94.8060  -13.1930   54.5750 C.3   212  SER212      0.1889
    112  C         93.3990  -13.3400   54.0040 C.2   212  SER212      0.2288
    113  O         92.4540  -13.5770   54.7570 O.2   212  SER212     -0.2866
    114  CB        95.3050  -14.5420   55.0700 C.3   212  SER212      0.2089
    115  OG        95.5440  -15.4000   53.9690 O.3   212  SER212     -0.2183
    116  N         90.3870  -14.6670   50.8740 N.3   214  HIS214     -0.1241
    117  CA        89.9660  -15.5830   49.8180 C.3   214  HIS214      0.1621
    118  C         88.6280  -15.2240   49.1680 C.2   214  HIS214      0.2264
    119  O         87.9350  -16.1010   48.6340 O.2   214  HIS214     -0.2867
    120  CB        89.9020  -17.0070   50.3630 C.3   214  HIS214      0.0745
    121  CG        91.1970  -17.4840   50.9360 C.ar  214  HIS214      0.0817
    122  ND1       91.4390  -17.5310   52.2920 N.ar  214  HIS214     -0.2268
    123  CD2       92.3390  -17.8950   50.3350 C.ar  214  HIS214      0.1154
    124  CE1       92.6730  -17.9510   52.5020 C.ar  214  HIS214      0.1986
    125  NE2       93.2410  -18.1780   51.3310 N.ar  214  HIS214     -0.2212
    126  N         97.2730  -10.4920   52.3030 N.3   233  GLU233     -0.1245
    127  CA        97.6280  -11.6240   51.4680 C.3   233  GLU233      0.1567
    128  C         96.4530  -12.1250   50.6490 C.2   233  GLU233      0.2260
    129  O         95.3690  -12.3850   51.1710 O.2   233  GLU233     -0.2867
    130  CB        98.1810  -12.7930   52.2950 C.3   233  GLU233      0.0388
    131  CG        98.6160  -13.9720   51.4160 C.3   233  GLU233      0.1160
    132  CD        99.0720  -15.1930   52.2060 C.2   233  GLU233      0.3649
    133  OE1      100.0280  -15.0750   53.0010 O.co2 233  GLU233     -0.2457
    134  OE2       98.4750  -16.2760   52.0220 O.co2 233  GLU233     -0.2457
    135  N         95.8990  -14.7550   47.0200 N.3   235  HIS235     -0.1241
    136  CA        96.6140  -15.6180   46.0970 C.3   235  HIS235      0.1621
    137  C         96.7730  -14.7750   44.8330 C.2   235  HIS235      0.2264
    138  O         96.0180  -13.8230   44.6180 O.2   235  HIS235     -0.2867
    139  CB        95.8270  -16.9040   45.8390 C.3   235  HIS235      0.0745
    140  CG        95.8250  -17.8450   47.0050 C.ar  235  HIS235      0.0817
    141  ND1       96.2750  -19.1460   46.9150 N.ar  235  HIS235     -0.2268
    142  CD2       95.4570  -17.6640   48.2980 C.ar  235  HIS235      0.1154
    143  CE1       96.1860  -19.7240   48.1010 C.ar  235  HIS235      0.1986
    144  NE2       95.6950  -18.8460   48.9570 N.ar  235  HIS235     -0.2212
@<TRIPOS>BOND
     1   138   137    2
     2   137   136    1
     3     4     3    2
     4     3     2    1
     5   139   136    1
     6   139   140    1
     7   136   135    1
     8     1     2    1
     9   101   100    2
    10    13    12    2
    11   141   140   ar
    12   141   143   ar
    13     2     5    1
    14   140   142   ar
    15   100    99    1
    16    10    11    1
    17    12    11    1
    18    22    21    2
    19   102    99    1
    20   102   103    1
    21   143   144   ar
    22     5     6    1
    23     6     7    1
    24   142   144   ar
    25    19    20    1
    26    99    98    1
    27    11    14    1
    28   119   118    2
    29    27    25   am
    30    23    20    1
    31    23    24    1
    32     8     7   ar
    33     7     9   ar
    34   105   103   ar
    35   105   107   ar
    36    21    20    1
    37   118   117    1
    38   103   104   ar
    39    25    24    1
    40    25    26    2
    41    14    15    1
    42   117   120    1
    43   117   116    1
    44   107   108   ar
    45   104   106   ar
    46   123   121   ar
    47   123   125   ar
    48   120   121    1
    49   128   129    2
    50   128   127    1
    51    15    16    1
    52   121   122   ar
    53    18    17    1
    54   108   106   ar
    55   108   109    1
    56   125   124   ar
    57    17    16    1
    58   131   132    1
    59   131   130    1
    60   127   130    1
    61   127   126    1
    62   134   132   ar
    63   132   133   ar
    64   122   124   ar
    65    43    45   ar
    66    43    41   ar
    67    28    29    1
    68    45    44   ar
    69    31    30    2
    70    41    40   ar
    71    33    32    1
    72    32    29    1
    73    32    34    1
    74    44    42   ar
    75    29    30    1
    76    92    93    2
    77    92    91    1
    78   115   114    1
    79    40    42   ar
    80    40    39    1
    81   112   111    1
    82   112   113    2
    83   111   114    1
    84   111   110    1
    85    39    36    1
    86    91    94    1
    87    91    90    1
    88    54    53    1
    89    96    95    2
    90    35    36    1
    91    94    95    1
    92    51    50    1
    93    51    52    1
    94    50    47    1
    95    36    37    1
    96    95    97   am
    97    89    88    1
    98    52    53    1
    99    37    38    2
   100    46    47    1
   101    49    48    2
   102    47    48    1
   103    83    82    1
   104    56    55    1
   105    56    57    1
   106    77    75   ar
   107    88    85    1
   108    85    86    1
   109    85    84    1
   110    86    87    2
   111    59    57   am
   112    59    60    1
   113    76    75   ar
   114    75    74    1
   115    57    58    2
   116    82    79    1
   117    64    63    1
   118    63    60    1
   119    65    66    1
   120    65    61   am
   121    66    67    1
   122    60    61    1
   123    74    73    1
   124    61    62    2
   125    79    78    1
   126    79    80    1
   127    67    69   am
   128    67    68    2
   129    69    70    1
   130    73    70    1
   131    80    81    2
   132    70    71    1
   133    71    72    2
