@<TRIPOS>MOLECULE
tmp/1xuzA00.pdb
 181 171 0 0 0
SMALL
GASTEIGER

@<TRIPOS>ATOM
      1  N        100.7380  -14.4720   46.7880 N.3    24  GLU24      -0.1245
      2  CA       101.0330  -15.8850   46.9200 C.3    24  GLU24       0.1567
      3  C        100.5850  -16.6760   45.7120 C.2    24  GLU24       0.2260
      4  O         99.3900  -16.8200   45.4680 O.2    24  GLU24      -0.2867
      5  CB       100.3650  -16.4730   48.1520 C.3    24  GLU24       0.0388
      6  CG       100.5610  -17.9790   48.2310 C.3    24  GLU24       0.1160
      7  CD        99.5040  -18.6180   49.0640 C.2    24  GLU24       0.3649
      8  OE1       98.3650  -18.1170   49.0090 O.co2  24  GLU24      -0.2457
      9  OE2       99.7930  -19.6100   49.7590 O.co2  24  GLU24      -0.2457
     10  N        100.0180  -22.7700   44.9430 N.3    27  ILE27      -0.1245
     11  CA       100.0320  -23.9380   44.0610 C.3    27  ILE27       0.1561
     12  C         99.4920  -23.5750   42.6840 C.2    27  ILE27       0.2260
     13  O         99.2340  -24.4490   41.8570 O.2    27  ILE27      -0.2867
     14  CB        99.1590  -25.0770   44.6130 C.3    27  ILE27       0.0252
     15  CG1       97.7260  -24.5740   44.8320 C.3    27  ILE27       0.0019
     16  CG2       99.7610  -25.6160   45.8930 C.3    27  ILE27       0.0019
     17  CD1       96.7380  -25.6690   45.2230 C.3    27  ILE27       0.0001
     18  N        104.3630  -22.0750   48.3960 N.3    54  GLN54      -0.1245
     19  CA       103.8750  -23.0900   49.3190 C.3    54  GLN54       0.1566
     20  C        104.8510  -24.2330   49.1350 C.2    54  GLN54       0.2260
     21  O        105.0700  -24.7000   48.0150 O.2    54  GLN54      -0.2867
     22  CB       102.4510  -23.5350   48.9760 C.3    54  GLN54       0.0367
     23  CG       101.3600  -22.6320   49.5450 C.3    54  GLN54       0.0905
     24  CD        99.9590  -23.1940   49.3330 C.2    54  GLN54       0.2608
     25  OE1       99.7090  -24.3690   49.5820 O.2    54  GLN54      -0.2717
     26  NE2       99.0400  -22.3490   48.8860 N.am   54  GLN54      -0.0878
     27  N        105.4880  -27.8600   49.5660 N.3    56  HIS56      -0.1241
     28  CA       104.8620  -29.1450   49.8010 C.3    56  HIS56       0.1621
     29  C        105.7860  -30.3290   49.5810 C.2    56  HIS56       0.2264
     30  O        106.4880  -30.4140   48.5720 O.2    56  HIS56      -0.2867
     31  CB       103.6350  -29.3200   48.9080 C.3    56  HIS56       0.0745
     32  CG       102.4880  -28.4360   49.2750 C.ar   56  HIS56       0.0817
     33  ND1      102.3240  -27.1720   48.7520 N.ar   56  HIS56      -0.2268
     34  CD2      101.4400  -28.6390   50.1050 C.ar   56  HIS56       0.1154
     35  CE1      101.2200  -26.6370   49.2400 C.ar   56  HIS56       0.1986
     36  NE2      100.6650  -27.5060   50.0640 N.ar   56  HIS56      -0.2212
     37  N         89.3070  -31.6910   49.5770 N.3    71  PRO71      -0.2116
     38  CA        89.1480  -30.3200   50.0690 C.3    71  PRO71       0.1372
     39  C         87.8400  -29.7410   49.5390 C.2    71  PRO71       0.2244
     40  O         87.2610  -30.2730   48.5950 O.2    71  PRO71      -0.2868
     41  CB        90.3800  -29.6050   49.5140 C.3    71  PRO71       0.0268
     42  CG        90.6630  -30.3520   48.2550 C.3    71  PRO71       0.0207
     43  CD        90.4610  -31.7880   48.6650 C.3    71  PRO71       0.0892
     44  N         87.2780  -27.0460   47.8200 N.3    73  ASN73      -0.1240
     45  CA        87.3570  -26.4500   46.4840 C.3    73  ASN73       0.1653
     46  C         87.9370  -27.3840   45.4230 C.2    73  ASN73       0.2266
     47  O         88.6550  -26.9390   44.5320 O.2    73  ASN73      -0.2867
     48  CB        88.2010  -25.1700   46.5170 C.3    73  ASN73       0.1155
     49  CG        89.6160  -25.4190   47.0000 C.2    73  ASN73       0.2627
     50  OD1       90.5020  -24.5680   46.8540 O.2    73  ASN73      -0.2716
     51  ND2       89.8370  -26.5830   47.5880 N.am   73  ASN73      -0.0877
     52  N         93.2840  -34.3190   48.5530 N.3    78  ILE78      -0.1245
     53  CA        94.2610  -33.2600   48.7670 C.3    78  ILE78       0.1561
     54  C         95.6460  -33.8250   48.4490 C.2    78  ILE78       0.2260
     55  O         96.5420  -33.0960   48.0240 O.2    78  ILE78      -0.2867
     56  CB        94.2320  -32.7630   50.2360 C.3    78  ILE78       0.0252
     57  CG1       95.2330  -31.6230   50.4350 C.3    78  ILE78       0.0019
     58  CG2       94.5600  -33.9130   51.1850 C.3    78  ILE78       0.0019
     59  CD1       94.8290  -30.3210   49.7810 C.3    78  ILE78       0.0001
     60  N         96.1130  -33.6170   44.6560 N.3    81  ILE81      -0.1231
     61  CA        96.3260  -32.2220   44.2860 C.3    81  ILE81       0.1692
     62  C         97.7500  -31.7690   44.5900 C.2    81  ILE81       0.2591
     63  O         98.4080  -31.1430   43.7590 O.2    81  ILE81      -0.2718
     64  CB        95.3680  -31.2880   45.0500 C.3    81  ILE81       0.0266
     65  CG1       93.9200  -31.5940   44.6610 C.3    81  ILE81       0.0019
     66  CG2       95.7230  -29.8280   44.7580 C.3    81  ILE81       0.0020
     67  CD1       92.8940  -30.8940   45.5390 C.3    81  ILE81       0.0001
     68  N         98.2120  -32.0760   45.7970 N.am   82  MET82      -0.1979
     69  CA        99.5460  -31.6770   46.2170 C.3    82  MET82       0.1605
     70  C        100.6690  -32.3960   45.4750 C.2    82  MET82       0.2287
     71  O        101.7170  -31.8110   45.2150 O.2    82  MET82      -0.2864
     72  CB        99.6910  -31.8600   47.7300 C.3    82  MET82       0.0413
     73  CG        98.8460  -30.8680   48.5290 C.3    82  MET82       0.0598
     74  SD        99.1470  -29.1800   47.9730 S.3    82  MET82      -0.1393
     75  CE        97.6150  -28.3800   48.3230 C.3    82  MET82       0.0692
     76  N        104.4120  -26.9140   55.3660 N.3   111  PHE111     -0.1241
     77  CA       103.2740  -27.6870   55.8460 C.3   111  PHE111      0.1605
     78  C        103.7650  -28.9390   56.5390 C.2   111  PHE111      0.2264
     79  O        102.9750  -29.8120   56.8930 O.2   111  PHE111     -0.2867
     80  CB       102.3440  -28.0700   54.6890 C.3   111  PHE111      0.0534
     81  CG       101.7470  -26.8920   53.9810 C.ar  111  PHE111     -0.0203
     82  CD1      102.4540  -26.2300   52.9860 C.ar  111  PHE111     -0.0042
     83  CD2      100.4810  -26.4290   54.3240 C.ar  111  PHE111     -0.0042
     84  CE1      101.9140  -25.1300   52.3420 C.ar  111  PHE111     -0.0003
     85  CE2       99.9290  -25.3210   53.6820 C.ar  111  PHE111     -0.0003
     86  CZ       100.6480  -24.6730   52.6890 C.ar  111  PHE111     -0.0000
     87  N        100.4660  -21.2980   57.6470 N.3   130  GLY130     -0.1210
     88  CA        99.0840  -21.2710   57.2130 C.3   130  GLY130      0.1956
     89  C         98.0710  -21.5590   58.2990 C.2   130  GLY130      0.2613
     90  O         98.3820  -22.2120   59.2920 O.2   130  GLY130     -0.2717
     91  N         96.8480  -21.0850   58.0960 N.am  131  SER131     -0.1938
     92  CA        95.7760  -21.2830   59.0660 C.3   131  SER131      0.2055
     93  C         95.5950  -22.7400   59.4850 C.2   131  SER131      0.2644
     94  O         95.1920  -23.0190   60.6160 O.2   131  SER131     -0.2714
     95  CB        94.4640  -20.7350   58.5100 C.3   131  SER131      0.2130
     96  OG        94.5480  -19.3330   58.3290 O.3   131  SER131     -0.2179
     97  N         95.8940  -23.6640   58.5730 N.am  132  GLY132     -0.1939
     98  CA        95.7630  -25.0760   58.8850 C.3   132  GLY132      0.2014
     99  C         96.7700  -25.5300   59.9310 C.2   132  GLY132      0.2638
    100  O         96.5300  -26.4890   60.6670 O.2   132  GLY132     -0.2714
    101  N         97.8990  -24.8300   60.0060 N.am  133  GLU133     -0.1977
    102  CA        98.9500  -25.1660   60.9610 C.3   133  GLU133      0.1602
    103  C         98.9780  -24.2380   62.1730 C.2   133  GLU133      0.2287
    104  O         99.8450  -24.3670   63.0350 O.2   133  GLU133     -0.2864
    105  CB       100.3170  -25.1260   60.2740 C.3   133  GLU133      0.0415
    106  CG       100.5430  -26.2110   59.2380 C.3   133  GLU133      0.1163
    107  CD        99.4730  -26.2360   58.1600 C.2   133  GLU133      0.3649
    108  OE1       98.6540  -27.1820   58.1560 O.co2 133  GLU133     -0.2457
    109  OE2       99.4510  -25.3090   57.3230 O.co2 133  GLU133     -0.2457
    110  N         90.1630  -20.5520   60.9610 N.3   156  MET156     -0.1245
    111  CA        89.7280  -21.8040   61.5760 C.3   156  MET156      0.1570
    112  C         90.1450  -21.9600   63.0390 C.2   156  MET156      0.2261
    113  O         90.0330  -23.0530   63.5990 O.2   156  MET156     -0.2867
    114  CB        90.2790  -22.9930   60.7740 C.3   156  MET156      0.0387
    115  CG        89.9990  -22.9270   59.2760 C.3   156  MET156      0.0595
    116  SD        90.6500  -24.3440   58.3440 S.3   156  MET156     -0.1393
    117  CE        92.3460  -23.8450   58.0520 C.3   156  MET156      0.0692
    118  N         89.1450  -19.6250   55.7440 N.3   183  ASN183     -0.1240
    119  CA        89.5970  -20.5770   54.7390 C.3   183  ASN183      0.1653
    120  C         88.5490  -21.3280   53.9320 C.2   183  ASN183      0.2266
    121  O         88.3720  -22.5310   54.0870 O.2   183  ASN183     -0.2867
    122  CB        90.5620  -21.5680   55.3930 C.3   183  ASN183      0.1155
    123  CG        91.8240  -20.8950   55.9080 C.2   183  ASN183      0.2627
    124  OD1       92.8170  -20.7680   55.1870 O.2   183  ASN183     -0.2716
    125  ND2       91.7850  -20.4440   57.1550 N.am  183  ASN183     -0.0877
    126  N         87.3810  -21.4930   49.8160 N.3   185  TYR185     -0.1241
    127  CA        87.8020  -21.0570   48.4920 C.3   185  TYR185      0.1605
    128  C         86.7310  -21.1890   47.4180 C.2   185  TYR185      0.2264
    129  O         86.5290  -22.2690   46.8630 O.2   185  TYR185     -0.2867
    130  CB        89.0520  -21.8390   48.0850 C.3   185  TYR185      0.0534
    131  CG        90.0870  -21.9130   49.1880 C.ar  185  TYR185     -0.0201
    132  CD1       89.8750  -22.7080   50.3180 C.ar  185  TYR185     -0.0009
    133  CD2       91.2540  -21.1540   49.1290 C.ar  185  TYR185     -0.0009
    134  CE1       90.8010  -22.7400   51.3650 C.ar  185  TYR185      0.0417
    135  CE2       92.1870  -21.1780   50.1690 C.ar  185  TYR185      0.0417
    136  CZ        91.9540  -21.9700   51.2830 C.ar  185  TYR185      0.1957
    137  OH        92.8610  -21.9820   52.3190 O.3   185  TYR185     -0.2866
    138  N         90.3870  -14.6670   50.8740 N.3   214  HIS214     -0.1241
    139  CA        89.9660  -15.5830   49.8180 C.3   214  HIS214      0.1621
    140  C         88.6280  -15.2240   49.1680 C.2   214  HIS214      0.2264
    141  O         87.9350  -16.1010   48.6340 O.2   214  HIS214     -0.2867
    142  CB        89.9020  -17.0070   50.3630 C.3   214  HIS214      0.0745
    143  CG        91.1970  -17.4840   50.9360 C.ar  214  HIS214      0.0817
    144  ND1       91.4390  -17.5310   52.2920 N.ar  214  HIS214     -0.2268
    145  CD2       92.3390  -17.8950   50.3350 C.ar  214  HIS214      0.1154
    146  CE1       92.6730  -17.9510   52.5020 C.ar  214  HIS214      0.1986
    147  NE2       93.2410  -18.1780   51.3310 N.ar  214  HIS214     -0.2212
    148  N         97.2730  -10.4920   52.3030 N.3   233  GLU233     -0.1245
    149  CA        97.6280  -11.6240   51.4680 C.3   233  GLU233      0.1567
    150  C         96.4530  -12.1250   50.6490 C.2   233  GLU233      0.2260
    151  O         95.3690  -12.3850   51.1710 O.2   233  GLU233     -0.2867
    152  CB        98.1810  -12.7930   52.2950 C.3   233  GLU233      0.0388
    153  CG        98.6160  -13.9720   51.4160 C.3   233  GLU233      0.1160
    154  CD        99.0720  -15.1930   52.2060 C.2   233  GLU233      0.3649
    155  OE1      100.0280  -15.0750   53.0010 O.co2 233  GLU233     -0.2457
    156  OE2       98.4750  -16.2760   52.0220 O.co2 233  GLU233     -0.2457
    157  N         95.8990  -14.7550   47.0200 N.3   235  HIS235     -0.1241
    158  CA        96.6140  -15.6180   46.0970 C.3   235  HIS235      0.1621
    159  C         96.7730  -14.7750   44.8330 C.2   235  HIS235      0.2264
    160  O         96.0180  -13.8230   44.6180 O.2   235  HIS235     -0.2867
    161  CB        95.8270  -16.9040   45.8390 C.3   235  HIS235      0.0745
    162  CG        95.8250  -17.8450   47.0050 C.ar  235  HIS235      0.0817
    163  ND1       96.2750  -19.1460   46.9150 N.ar  235  HIS235     -0.2268
    164  CD2       95.4570  -17.6640   48.2980 C.ar  235  HIS235      0.1154
    165  CE1       96.1860  -19.7240   48.1010 C.ar  235  HIS235      0.1986
    166  NE2       95.6950  -18.8460   48.9570 N.ar  235  HIS235     -0.2212
    167  N         92.4490  -24.8930   41.7890 N.3   245  PRO245     -0.2102
    168  CA        91.4470  -24.6340   42.8280 C.3   245  PRO245      0.1504
    169  C         91.4890  -23.2820   43.5440 C.2   245  PRO245      0.2575
    170  O         90.4780  -22.8540   44.1000 O.2   245  PRO245     -0.2718
    171  CB        91.6240  -25.8150   43.7830 C.3   245  PRO245      0.0282
    172  CG        93.0620  -26.1750   43.6220 C.3   245  PRO245      0.0208
    173  CD        93.2850  -26.0560   42.1360 C.3   245  PRO245      0.0893
    174  N         92.6360  -22.6070   43.5370 N.am  246  ASP246     -0.1974
    175  CA        92.7340  -21.3070   44.2040 C.3   246  ASP246      0.1708
    176  C         92.7020  -20.1290   43.2310 C.2   246  ASP246      0.2293
    177  O         92.6630  -18.9710   43.6500 O.2   246  ASP246     -0.2864
    178  CB        94.0150  -21.2120   45.0380 C.3   246  ASP246      0.1436
    179  CG        94.0840  -22.2590   46.1360 C.2   246  ASP246      0.3671
    180  OD1       93.0300  -22.6500   46.6800 O.co2 246  ASP246     -0.2456
    181  OD2       95.2060  -22.6780   46.4690 O.co2 246  ASP246     -0.2456
@<TRIPOS>BOND
     1   167   173    1
     2   167   168    1
     3    13    12    2
     4   173   172    1
     5    12    11    1
     6   168   169    1
     7   168   171    1
     8   176   177    2
     9   176   175    1
    10   174   169   am
    11   174   175    1
    12   169   170    2
    13   172   171    1
    14    63    62    2
    15    11    14    1
    16    11    10    1
    17   175   178    1
    18    61    62    1
    19    61    60    1
    20    61    64    1
    21    47    46    2
    22    62    68   am
    23    14    15    1
    24    14    16    1
    25   160   159    2
    26    65    64    1
    27    65    67    1
    28    66    64    1
    29    15    17    1
    30   159   158    1
    31   178   179    1
    32    71    70    2
    33    46    45    1
    34     4     3    2
    35    70    69    1
    36     3     2    1
    37    68    69    1
    38   161   158    1
    39   161   162    1
    40   158   157    1
    41   179   181   ar
    42   179   180   ar
    43    69    72    1
    44    45    48    1
    45    45    44    1
    46    48    49    1
    47     1     2    1
    48    50    49    2
    49   129   128    2
    50   163   162   ar
    51   163   165   ar
    52     2     5    1
    53    49    51   am
    54   162   164   ar
    55   128   127    1
    56    72    73    1
    57    74    75    1
    58    74    73    1
    59    21    20    2
    60    55    54    2
    61   130   127    1
    62   130   131    1
    63   165   166   ar
    64     5     6    1
    65     6     7    1
    66    42    43    1
    67    42    41    1
    68   164   166   ar
    69    18    19    1
    70    54    53    1
    71   127   126    1
    72    52    53    1
    73    30    29    2
    74    40    39    2
    75   141   140    2
    76    43    37    1
    77    33    35   ar
    78    33    32   ar
    79    53    56    1
    80    26    24   am
    81    31    32    1
    82    31    28    1
    83    22    19    1
    84    22    23    1
    85     8     7   ar
    86     7     9   ar
    87   133   131   ar
    88   133   135   ar
    89    20    19    1
    90   140   139    1
    91   131   132   ar
    92    35    36   ar
    93    32    34   ar
    94    24    23    1
    95    24    25    2
    96    41    38    1
    97    39    38    1
    98    27    28    1
    99    37    38    1
   100    29    28    1
   101    59    57    1
   102   139   142    1
   103   139   138    1
   104    36    34   ar
   105   135   136   ar
   106    56    57    1
   107    56    58    1
   108   132   134   ar
   109   145   143   ar
   110   145   147   ar
   111   142   143    1
   112   150   151    2
   113   150   149    1
   114   143   144   ar
   115   136   134   ar
   116   136   137    1
   117   147   146   ar
   118   153   154    1
   119   153   152    1
   120   149   152    1
   121   149   148    1
   122   156   154   ar
   123   154   155   ar
   124   144   146   ar
   125    84    86   ar
   126    84    82   ar
   127    86    85   ar
   128    82    81   ar
   129    85    83   ar
   130   120   121    2
   131   120   119    1
   132    81    83   ar
   133    81    80    1
   134    80    77    1
   135   119   122    1
   136   119   118    1
   137   124   123    2
   138    76    77    1
   139   122   123    1
   140    77    78    1
   141   123   125   am
   142    78    79    2
   143    88    87    1
   144    88    89    1
   145   109   107   ar
   146   117   116    1
   147    91    89   am
   148    91    92    1
   149   108   107   ar
   150   107   106    1
   151    89    90    2
   152    96    95    1
   153   116   115    1
   154    95    92    1
   155    97    98    1
   156    97    93   am
   157    98    99    1
   158    92    93    1
   159   106   105    1
   160   115   114    1
   161    93    94    2
   162    99   101   am
   163    99   100    2
   164   101   102    1
   165   105   102    1
   166   114   111    1
   167   102   103    1
   168   110   111    1
   169   111   112    1
   170   103   104    2
   171   112   113    2
