@<TRIPOS>MOLECULE
tmp/1xv5A00.pdb
 167 160 0 0 0
SMALL
GASTEIGER

@<TRIPOS>ATOM
      1  N         -1.0210   29.8740   17.2620 N.3    14  GLY14      -0.1225
      2  CA        -1.8790   30.4060   18.3050 C.3    14  GLY14       0.1811
      3  C         -1.2350   30.6630   19.6540 C.2    14  GLY14       0.2280
      4  O         -1.9320   30.9600   20.6260 O.2    14  GLY14      -0.2866
      5  N          2.8400   31.9920   21.5250 N.3    15  GLY15      -0.1210
      6  CA         3.7460   33.1340   21.5300 C.3    15  GLY15       0.1956
      7  C          4.2250   33.7120   20.2100 C.2    15  GLY15       0.2611
      8  O          4.3840   34.9270   20.0850 O.2    15  GLY15      -0.2717
      9  N          4.4870   32.8580   19.2310 N.am   16  VAL16      -0.1979
     10  CA         4.9430   33.3440   17.9360 C.3    16  VAL16       0.1595
     11  C          3.8130   34.0970   17.2460 C.2    16  VAL16       0.2287
     12  O          4.0310   35.1410   16.6230 O.2    16  VAL16      -0.2864
     13  CB         5.4210   32.1830   17.0460 C.3    16  VAL16       0.0276
     14  CG1        5.7900   32.6990   15.6590 C.3    16  VAL16       0.0022
     15  CG2        6.6290   31.5180   17.6900 C.3    16  VAL16       0.0022
     16  N          1.2650   35.5090   18.8010 N.3    18  LYS18      -0.1245
     17  CA         1.0710   36.7110   19.6040 C.3    18  LYS18       0.1561
     18  C          2.0930   37.7790   19.2110 C.2    18  LYS18       0.2260
     19  O          1.7450   38.9380   18.9880 O.2    18  LYS18      -0.2867
     20  CB         1.2180   36.3710   21.0880 C.3    18  LYS18       0.0271
     21  CG         1.0770   37.5630   22.0200 C.3    18  LYS18       0.0035
     22  CD        -0.2650   38.2540   21.8510 C.3    18  LYS18       0.0206
     23  CE        -0.4500   39.3250   22.9150 C.3    18  LYS18       0.1093
     24  NZ        -1.6800   40.1200   22.7050 N.3    18  LYS18      -0.1314
     25  N         -4.9760   25.8940   18.3880 N.3    46  ARG46      -0.1245
     26  CA        -5.2870   27.2310   18.8880 C.3    46  ARG46       0.1563
     27  C         -5.3100   28.3290   17.8300 C.2    46  ARG46       0.2260
     28  O         -5.0450   29.4890   18.1350 O.2    46  ARG46      -0.2867
     29  CB        -4.2880   27.6140   19.9820 C.3    46  ARG46       0.0307
     30  CG        -4.0400   26.5140   21.0070 C.3    46  ARG46       0.0489
     31  CD        -3.0370   26.9550   22.0710 C.3    46  ARG46       0.2205
     32  NE        -2.3550   25.8090   22.6730 N.pl3  46  ARG46      -0.0865
     33  CZ        -2.5280   25.3900   23.9230 C.cat  46  ARG46       0.5346
     34  NH1       -3.3670   26.0190   24.7360 N.pl3  46  ARG46       0.1354
     35  NH2       -1.8630   24.3300   24.3580 N.pl3  46  ARG46       0.1354
     36  N         -7.2270   31.2920   19.0470 N.3    49  SER49      -0.1202
     37  CA        -6.9150   31.9170   20.3270 C.3    49  SER49       0.2020
     38  C         -6.7230   33.4270   20.2230 C.2    49  SER49       0.2618
     39  O         -7.1100   34.1710   21.1270 O.2    49  SER49      -0.2717
     40  CB        -5.6720   31.2710   20.9370 C.3    49  SER49       0.2103
     41  OG        -5.9530   29.9390   21.3340 O.3    49  SER49      -0.2182
     42  N         -6.1290   33.8810   19.1250 N.am   50  HIS50      -0.1975
     43  CA        -5.9030   35.3090   18.9280 C.3    50  HIS50       0.1656
     44  C         -6.6880   35.8120   17.7260 C.2    50  HIS50       0.2291
     45  O         -6.9420   35.0650   16.7860 O.2    50  HIS50      -0.2864
     46  CB        -4.4130   35.6010   18.7220 C.3    50  HIS50       0.0771
     47  CG        -3.5470   35.1730   19.8670 C.ar   50  HIS50       0.0820
     48  ND1       -2.9990   33.9120   19.9570 N.ar   50  HIS50      -0.2267
     49  CD2       -3.1500   35.8360   20.9780 C.ar   50  HIS50       0.1154
     50  CE1       -2.2990   33.8180   21.0750 C.ar   50  HIS50       0.1986
     51  NE2       -2.3760   34.9720   21.7130 N.ar   50  HIS50      -0.2212
     52  N         13.3860   28.2300   22.6010 N.3   116  HIS116     -0.1241
     53  CA        14.5120   28.0890   23.5180 C.3   116  HIS116      0.1621
     54  C         15.3810   26.8350   23.4070 C.2   116  HIS116      0.2264
     55  O         16.5210   26.9010   22.9540 O.2   116  HIS116     -0.2867
     56  CB        13.9900   28.2060   24.9520 C.3   116  HIS116      0.0745
     57  CG        13.1550   29.4270   25.1890 C.ar  116  HIS116      0.0817
     58  ND1       13.6890   30.6980   25.2330 N.ar  116  HIS116     -0.2268
     59  CD2       11.8200   29.5730   25.3640 C.ar  116  HIS116      0.1154
     60  CE1       12.7170   31.5730   25.4260 C.ar  116  HIS116      0.1986
     61  NE2       11.5730   30.9160   25.5080 N.ar  116  HIS116     -0.2212
     62  N         10.1270   39.8150   23.5190 N.3   176  PRO176     -0.2116
     63  CA         8.8510   39.7370   22.7920 C.3   176  PRO176      0.1372
     64  C          7.9150   40.7780   23.4230 C.2   176  PRO176      0.2244
     65  O          7.3890   40.5680   24.5190 O.2   176  PRO176     -0.2868
     66  CB         8.4070   38.2990   23.0390 C.3   176  PRO176      0.0268
     67  CG         8.9350   38.0170   24.4160 C.3   176  PRO176      0.0207
     68  CD        10.3080   38.6530   24.4120 C.3   176  PRO176      0.0892
     69  N         -0.9950   29.0780   30.7150 N.3   203  GLY203     -0.1210
     70  CA         0.1480   28.5630   29.9830 C.3   203  GLY203      0.1956
     71  C         -0.2670   27.4130   29.0820 C.2   203  GLY203      0.2611
     72  O         -1.3270   27.4600   28.4590 O.2   203  GLY203     -0.2717
     73  N          0.5770   26.3860   29.0010 N.am  204  ARG204     -0.1979
     74  CA         0.2830   25.2020   28.1960 C.3   204  ARG204      0.1597
     75  C          0.9680   24.0010   28.8260 C.2   204  ARG204      0.2287
     76  O          1.7520   24.1550   29.7610 O.2   204  ARG204     -0.2864
     77  CB         0.7180   25.3900   26.7380 C.3   204  ARG204      0.0334
     78  CG         2.1310   25.8810   26.5270 C.3   204  ARG204      0.0492
     79  CD         2.3140   26.2920   25.0700 C.3   204  ARG204      0.2205
     80  NE         3.6430   26.8310   24.8090 N.pl3 204  ARG204     -0.0865
     81  CZ         4.7430   26.0940   24.6930 C.cat 204  ARG204      0.5346
     82  NH1        5.9080   26.6770   24.4610 N.pl3 204  ARG204      0.1354
     83  NH2        4.6760   24.7730   24.7980 N.pl3 204  ARG204      0.1354
     84  N          8.2770   23.0000   31.8250 N.3   208  TRP208     -0.1227
     85  CA         8.9960   24.1970   32.2630 C.3   208  TRP208      0.1737
     86  C          8.0760   25.3930   32.4830 C.2   208  TRP208      0.2595
     87  O          8.5210   26.4480   32.9370 O.2   208  TRP208     -0.2718
     88  CB        10.1530   24.5770   31.3170 C.3   208  TRP208      0.0564
     89  CG         9.8400   24.8620   29.8780 C.ar  208  TRP208      0.0003
     90  CD1        9.9920   24.0020   28.8260 C.ar  208  TRP208      0.0946
     91  CD2        9.4480   26.1210   29.3110 C.ar  208  TRP208      0.0152
     92  NE1        9.7310   24.6490   27.6420 N.ar  208  TRP208     -0.2442
     93  CE2        9.3950   25.9500   27.9100 C.ar  208  TRP208      0.0810
     94  CE3        9.1430   27.3790   29.8510 C.ar  208  TRP208      0.0012
     95  CZ2        9.0490   26.9930   27.0370 C.ar  208  TRP208      0.0191
     96  CZ3        8.8000   28.4180   28.9800 C.ar  208  TRP208      0.0001
     97  CH2        8.7580   28.2140   27.5910 C.ar  208  TRP208      0.0015
     98  N          6.7910   25.2230   32.1790 N.am  209  LYS209     -0.1980
     99  CA         5.8160   26.2910   32.3850 C.3   209  LYS209      0.1596
    100  C          5.3880   26.2740   33.8460 C.2   209  LYS209      0.2287
    101  O          4.6590   27.1540   34.3010 O.2   209  LYS209     -0.2864
    102  CB         4.5930   26.0910   31.4840 C.3   209  LYS209      0.0298
    103  CG         4.8770   26.2630   29.9980 C.3   209  LYS209      0.0038
    104  CD         5.1290   27.7200   29.6140 C.3   209  LYS209      0.0206
    105  CE         5.3170   27.8520   28.1070 C.3   209  LYS209      0.1093
    106  NZ         5.5330   29.2570   27.6430 N.3   209  LYS209     -0.1314
    107  N         -5.3160   26.5840   29.5530 N.3   233  GLY233     -0.1225
    108  CA        -4.3900   26.3130   28.4680 C.3   233  GLY233      0.1811
    109  C         -3.7160   24.9530   28.4160 C.2   233  GLY233      0.2280
    110  O         -2.9450   24.6890   27.4960 O.2   233  GLY233     -0.2866
    111  N         -7.7200   28.3480   25.5810 N.3   274  TYR274     -0.1241
    112  CA        -8.4580   29.5770   25.8020 C.3   274  TYR274      0.1605
    113  C         -8.3090   30.6120   24.7120 C.2   274  TYR274      0.2264
    114  O         -7.2930   30.6740   24.0110 O.2   274  TYR274     -0.2867
    115  CB        -8.0910   30.2030   27.1580 C.3   274  TYR274      0.0534
    116  CG        -6.6430   30.6420   27.3330 C.ar  274  TYR274     -0.0201
    117  CD1       -6.2040   31.8980   26.8910 C.ar  274  TYR274     -0.0009
    118  CD2       -5.7290   29.8260   27.9950 C.ar  274  TYR274     -0.0009
    119  CE1       -4.8890   32.3250   27.1190 C.ar  274  TYR274      0.0417
    120  CE2       -4.4210   30.2390   28.2240 C.ar  274  TYR274      0.0417
    121  CZ        -4.0050   31.4880   27.7890 C.ar  274  TYR274      0.1957
    122  OH        -2.7140   31.8970   28.0450 O.3   274  TYR274     -0.2866
    123  N         -7.6480   34.1660   23.9030 N.3   276  ASN276     -0.1240
    124  CA        -6.8940   35.1900   24.6160 C.3   276  ASN276      0.1653
    125  C         -7.7400   36.2750   25.2840 C.2   276  ASN276      0.2266
    126  O         -7.6040   36.5120   26.4870 O.2   276  ASN276     -0.2867
    127  CB        -5.8620   35.8180   23.6720 C.3   276  ASN276      0.1155
    128  CG        -4.8200   36.6320   24.4130 C.2   276  ASN276      0.2627
    129  OD1       -4.9010   37.8560   24.4690 O.2   276  ASN276     -0.2716
    130  ND2       -3.8390   35.9480   25.0000 N.am  276  ASN276     -0.0877
    131  N          7.7160   36.3140   29.2210 N.3   305  GLU305     -0.1231
    132  CA         6.8430   35.7330   28.2090 C.3   305  GLU305      0.1699
    133  C          5.5360   36.5070   28.1560 C.2   305  GLU305      0.2592
    134  O          5.2450   37.3120   29.0430 O.2   305  GLU305     -0.2718
    135  CB         6.5740   34.2690   28.5430 C.3   305  GLU305      0.0402
    136  CG         7.8320   33.4350   28.5430 C.3   305  GLU305      0.1161
    137  CD         7.5770   31.9990   28.9280 C.2   305  GLU305      0.3649
    138  OE1        7.4870   31.7080   30.1400 O.co2 305  GLU305     -0.2457
    139  OE2        7.4520   31.1680   28.0090 O.co2 305  GLU305     -0.2457
    140  N          4.7480   36.2760   27.1140 N.am  306  TYR306     -0.1962
    141  CA         3.4840   36.9840   26.9960 C.3   306  TYR306      0.1771
    142  C          2.5520   36.7430   28.1720 C.2   306  TYR306      0.2620
    143  O          1.8990   37.6730   28.6350 O.2   306  TYR306     -0.2715
    144  CB         2.7990   36.6390   25.6740 C.3   306  TYR306      0.0574
    145  CG         3.4190   37.3940   24.5240 C.ar  306  TYR306     -0.0198
    146  CD1        4.1560   36.7380   23.5420 C.ar  306  TYR306     -0.0009
    147  CD2        3.3340   38.7880   24.4640 C.ar  306  TYR306     -0.0009
    148  CE1        4.8010   37.4550   22.5290 C.ar  306  TYR306      0.0417
    149  CE2        3.9740   39.5080   23.4630 C.ar  306  TYR306      0.0417
    150  CZ         4.7050   38.8400   22.5030 C.ar  306  TYR306      0.1957
    151  OH         5.3560   39.5660   21.5290 O.3   306  TYR306     -0.2866
    152  N          2.4880   35.5110   28.6720 N.am  307  THR307     -0.1951
    153  CA         1.6170   35.2560   29.8100 C.3   307  THR307      0.1897
    154  C          2.0710   36.0650   31.0240 C.2   307  THR307      0.2313
    155  O          1.2520   36.4270   31.8610 O.2   307  THR307     -0.2863
    156  CB         1.5430   33.7530   30.1700 C.3   307  THR307      0.1794
    157  OG1        2.8600   33.1970   30.2220 O.3   307  THR307     -0.2208
    158  CG2        0.7090   33.0030   29.1290 C.3   307  THR307      0.0378
    159  N          0.7300   39.6040   30.3360 N.3   310  GLU310     -0.1245
    160  CA        -0.7180   39.6430   30.3980 C.3   310  GLU310      0.1567
    161  C         -1.2340   39.7520   31.8330 C.2   310  GLU310      0.2260
    162  O         -2.2290   40.4210   32.0830 O.2   310  GLU310     -0.2867
    163  CB        -1.2880   38.4130   29.6800 C.3   310  GLU310      0.0388
    164  CG        -1.1250   38.5280   28.1620 C.3   310  GLU310      0.1160
    165  CD        -1.3230   37.2230   27.4070 C.2   310  GLU310      0.3649
    166  OE1       -1.5120   37.2960   26.1740 O.co2 310  GLU310     -0.2457
    167  OE2       -1.2750   36.1360   28.0240 O.co2 310  GLU310     -0.2457
@<TRIPOS>BOND
     1    14    13    1
     2    12    11    2
     3    45    44    2
     4    13    15    1
     5    13    10    1
     6    11    10    1
     7     1     2    1
     8    44    43    1
     9    27    28    2
    10    27    26    1
    11    10     9    1
    12     2     3    1
    13    25    26    1
    14    46    43    1
    15    46    47    1
    16    16    17    1
    17    26    29    1
    18    43    42    1
    19    19    18    2
    20    36    37    1
    21    42    38   am
    22    18    17    1
    23     9     7   am
    24    17    20    1
    25     3     4    2
    26    47    48   ar
    27    47    49   ar
    28    48    50   ar
    29    29    30    1
    30     8     7    2
    31     7     6    1
    32    38    37    1
    33    38    39    2
    34    37    40    1
    35    40    41    1
    36    49    51   ar
    37    30    31    1
    38    50    51   ar
    39    20    21    1
    40     5     6    1
    41   151   150    1
    42    22    21    1
    43    22    23    1
    44    31    32    1
    45   150   148   ar
    46   150   149   ar
    47   148   146   ar
    48    52    53    1
    49    32    33    2
    50    24    23    1
    51    63    66    1
    52    63    64    1
    53    63    62    1
    54    55    54    2
    55    66    67    1
    56    54    53    1
    57    64    65    2
    58   149   147   ar
    59    53    56    1
    60    62    68    1
    61   146   145   ar
    62   127   128    1
    63   127   124    1
    64   123   124    1
    65    33    35    1
    66    33    34    1
    67   114   113    2
    68    68    67    1
    69   128   129    2
    70   128   130   am
    71    82    81    1
    72   147   145   ar
    73   145   144    1
    74   124   125    1
    75    81    83    1
    76    81    80    2
    77   113   112    1
    78    80    79    1
    79    56    57    1
    80    79    78    1
    81    57    58   ar
    82    57    59   ar
    83    58    60   ar
    84   125   126    2
    85    59    61   ar
    86    60    61   ar
    87   111   112    1
    88   144   141    1
    89   112   115    1
    90   166   165   ar
    91    78    77    1
    92    77    74    1
    93   117   119   ar
    94   117   116   ar
    95   141   140    1
    96   141   142    1
    97    95    97   ar
    98    95    93   ar
    99   140   133   am
   100   119   121   ar
   101   115   116    1
   102   116   118   ar
   103   165   167   ar
   104   165   164    1
   105   110   109    2
   106    97    96   ar
   107    92    93   ar
   108    92    90   ar
   109   106   105    1
   110   121   122    1
   111   121   120   ar
   112    93    91   ar
   113   118   120   ar
   114   139   137   ar
   115   105   104    1
   116   133   132    1
   117   133   134    2
   118   164   163    1
   119   142   143    2
   120   142   152   am
   121    74    75    1
   122    74    73    1
   123   132   135    1
   124   132   131    1
   125   109   108    1
   126    72    71    2
   127   108   107    1
   128   136   135    1
   129   136   137    1
   130   152   153    1
   131    75    76    2
   132    90    89   ar
   133   137   138   ar
   134    96    94   ar
   135    73    71   am
   136    71    70    1
   137   158   156    1
   138    91    94   ar
   139    91    89   ar
   140   104   103    1
   141   163   160    1
   142   153   156    1
   143   153   154    1
   144    89    88    1
   145    70    69    1
   146   103   102    1
   147   156   157    1
   148   159   160    1
   149   160   161    1
   150   154   155    2
   151    88    85    1
   152   102    99    1
   153    84    85    1
   154   161   162    2
   155    98    99    1
   156    98    86   am
   157    85    86    1
   158    99   100    1
   159    86    87    2
   160   100   101    2
