@<TRIPOS>MOLECULE
tmp/1xv9B00.pdb
 219 211 0 0 0
SMALL
GASTEIGER

@<TRIPOS>ATOM
      1  N         32.9060   73.8190   85.4020 N.3    30  PHE30      -0.1241
      2  CA        32.2640   73.9210   84.0950 C.3    30  PHE30       0.1605
      3  C         31.5740   75.2680   83.8820 C.2    30  PHE30       0.2264
      4  O         31.4910   75.7700   82.7610 O.2    30  PHE30      -0.2867
      5  CB        31.2520   72.7810   83.9400 C.3    30  PHE30       0.0534
      6  CG        31.8820   71.4250   83.7720 C.ar   30  PHE30      -0.0203
      7  CD1       33.1760   71.1910   84.1960 C.ar   30  PHE30      -0.0042
      8  CD2       31.1900   70.3960   83.1560 C.ar   30  PHE30      -0.0042
      9  CE1       33.7720   69.9780   84.0100 C.ar   30  PHE30      -0.0003
     10  CE2       31.7870   69.1690   82.9660 C.ar   30  PHE30      -0.0003
     11  CZ        33.0770   68.9620   83.3910 C.ar   30  PHE30      -0.0000
     12  N         26.2650   77.5500   72.8810 N.3    55  LEU55      -0.1245
     13  CA        26.3420   76.2770   73.6030 C.3    55  LEU55       0.1561
     14  C         27.5270   75.4230   73.1350 C.2    55  LEU55       0.2260
     15  O         28.3400   74.9720   73.9430 O.2    55  LEU55      -0.2867
     16  CB        25.0200   75.5000   73.4060 C.3    55  LEU55       0.0270
     17  CG        24.8000   74.0830   73.9630 C.3    55  LEU55       0.0019
     18  CD1       24.9850   74.0990   75.4750 C.3    55  LEU55       0.0001
     19  CD2       23.4010   73.5720   73.5820 C.3    55  LEU55       0.0001
     20  N         30.7760   76.1290   74.2600 N.3    58  HIS58      -0.1226
     21  CA        30.9270   75.7480   75.6500 C.3    58  HIS58       0.1752
     22  C         31.2870   74.2630   75.6560 C.2    58  HIS58       0.2596
     23  O         32.1910   73.8380   76.3710 O.2    58  HIS58      -0.2718
     24  CB        29.6100   75.9790   76.3990 C.3    58  HIS58       0.0759
     25  CG        29.5850   75.4160   77.7880 C.ar   58  HIS58       0.0818
     26  ND1       30.4190   75.8620   78.7910 N.ar   58  HIS58      -0.2268
     27  CD2       28.8000   74.4630   78.3480 C.ar   58  HIS58       0.1154
     28  CE1       30.1480   75.2100   79.9090 C.ar   58  HIS58       0.1986
     29  NE2       29.1690   74.3560   79.6680 N.ar   58  HIS58      -0.2212
     30  N         30.5790   73.4750   74.8490 N.am   59  PHE59      -0.1976
     31  CA        30.8360   72.0440   74.7790 C.3    59  PHE59       0.1639
     32  C         32.3080   71.7830   74.5260 C.2    59  PHE59       0.2290
     33  O         33.0080   71.2510   75.3810 O.2    59  PHE59      -0.2864
     34  CB        30.0220   71.3920   73.6660 C.3    59  PHE59       0.0560
     35  CG        30.4670   69.9930   73.3490 C.ar   59  PHE59      -0.0200
     36  CD1       30.7840   69.6250   72.0540 C.ar   59  PHE59      -0.0042
     37  CD2       30.6120   69.0550   74.3550 C.ar   59  PHE59      -0.0042
     38  CE1       31.2410   68.3450   71.7720 C.ar   59  PHE59      -0.0003
     39  CE2       31.0670   67.7800   74.0760 C.ar   59  PHE59      -0.0003
     40  CZ        31.3810   67.4260   72.7840 C.ar   59  PHE59      -0.0000
     41  N         34.5670   72.7110   77.5380 N.3    62  ILE62      -0.1231
     42  CA        34.6900   71.8160   78.7020 C.3    62  ILE62       0.1692
     43  C         35.2520   70.4310   78.3270 C.2    62  ILE62       0.2592
     44  O         35.7480   69.7020   79.1890 O.2    62  ILE62      -0.2718
     45  CB        33.3180   71.6350   79.4760 C.3    62  ILE62       0.0266
     46  CG1       32.2350   71.1070   78.5340 C.3    62  ILE62       0.0019
     47  CG2       32.8830   72.9480   80.1260 C.3    62  ILE62       0.0020
     48  CD1       32.3770   69.6260   78.1690 C.3    62  ILE62       0.0001
     49  N         35.1680   70.0850   77.0420 N.am   63  ASN63      -0.1974
     50  CA        35.6660   68.8150   76.5370 C.3    63  ASN63       0.1688
     51  C         37.1650   68.9460   76.5050 C.2    63  ASN63       0.2292
     52  O         37.8840   68.1670   77.1320 O.2    63  ASN63      -0.2864
     53  CB        35.1510   68.5570   75.1310 C.3    63  ASN63       0.1181
     54  CG        34.9120   67.1030   74.8750 C.2    63  ASN63       0.2629
     55  OD1       34.3710   66.7330   73.8450 O.2    63  ASN63      -0.2716
     56  ND2       35.3060   66.2620   75.8210 N.am   63  ASN63      -0.0877
     57  N         38.2450   69.0240   79.9610 N.3    66  MET66      -0.1245
     58  CA        38.1980   67.7540   80.6660 C.3    66  MET66       0.1570
     59  C         39.4070   66.9320   80.3070 C.2    66  MET66       0.2261
     60  O         40.1300   66.4670   81.1790 O.2    66  MET66      -0.2867
     61  CB        36.9610   66.9620   80.2830 C.3    66  MET66       0.0387
     62  CG        35.7320   67.2960   81.0660 C.3    66  MET66       0.0595
     63  SD        34.5420   65.9730   80.8120 S.3    66  MET66      -0.1393
     64  CE        33.7420   66.5020   79.3050 C.3    66  MET66       0.0692
     65  N         39.3430   59.5400   76.3110 N.3    97  VAL97      -0.1245
     66  CA        37.8910   59.6920   76.1430 C.3    97  VAL97       0.1561
     67  C         37.1150   58.7840   77.0940 C.2    97  VAL97       0.2260
     68  O         36.2400   59.2510   77.8330 O.2    97  VAL97      -0.2867
     69  CB        37.4580   59.3940   74.6910 C.3    97  VAL97       0.0252
     70  CG1       35.9500   59.2280   74.6160 C.3    97  VAL97       0.0019
     71  CG2       37.9080   60.5300   73.7840 C.3    97  VAL97       0.0019
     72  N         37.0580   59.9650   80.6890 N.3   100  CYS100     -0.1221
     73  CA        36.1820   61.0800   80.9840 C.3   100  CYS100      0.1808
     74  C         34.7870   60.5760   81.3560 C.2   100  CYS100      0.2601
     75  O         34.2550   60.9450   82.4040 O.2   100  CYS100     -0.2717
     76  CB        36.1270   62.0060   79.7810 C.3   100  CYS100      0.0970
     77  SG        37.6870   62.8650   79.5450 S.3   100  CYS100     -0.0800
     78  N         34.2000   59.7310   80.5080 N.am  101  HIS101     -0.1975
     79  CA        32.8790   59.1690   80.7860 C.3   101  HIS101      0.1656
     80  C         32.8360   58.5500   82.1620 C.2   101  HIS101      0.2291
     81  O         31.8970   58.7540   82.9230 O.2   101  HIS101     -0.2864
     82  CB        32.5380   58.0860   79.7870 C.3   101  HIS101      0.0771
     83  CG        32.1110   58.6140   78.4660 C.ar  101  HIS101      0.0820
     84  ND1       30.9330   59.3040   78.2940 N.ar  101  HIS101     -0.2267
     85  CD2       32.7030   58.5630   77.2520 C.ar  101  HIS101      0.1154
     86  CE1       30.8160   59.6550   77.0260 C.ar  101  HIS101      0.1986
     87  NE2       31.8760   59.2170   76.3720 N.ar  101  HIS101     -0.2212
     88  N         32.7420   61.3350   84.6140 N.3   104  LEU104     -0.1245
     89  CA        31.4800   62.0000   84.3350 C.3   104  LEU104      0.1561
     90  C         30.2790   61.3590   85.0260 C.2   104  LEU104      0.2260
     91  O         29.4860   62.0440   85.6720 O.2   104  LEU104     -0.2867
     92  CB        31.2390   62.0210   82.8210 C.3   104  LEU104      0.0270
     93  CG        30.0080   62.7940   82.3330 C.3   104  LEU104      0.0019
     94  CD1       30.1440   64.2630   82.7210 C.3   104  LEU104      0.0001
     95  CD2       29.8500   62.6530   80.8270 C.3   104  LEU104      0.0001
     96  N         23.0610   65.2610   83.7880 N.3   115  PHE115     -0.1241
     97  CA        24.3650   65.4220   84.4430 C.3   115  PHE115      0.1605
     98  C         24.3180   66.6960   85.2710 C.2   115  PHE115      0.2264
     99  O         24.1410   67.7870   84.7380 O.2   115  PHE115     -0.2867
    100  CB        25.5170   65.5420   83.4290 C.3   115  PHE115      0.0534
    101  CG        25.8160   64.2680   82.6820 C.ar  115  PHE115     -0.0203
    102  CD1       25.1370   63.9530   81.5040 C.ar  115  PHE115     -0.0042
    103  CD2       26.7660   63.3730   83.1650 C.ar  115  PHE115     -0.0042
    104  CE1       25.4010   62.7720   80.8220 C.ar  115  PHE115     -0.0003
    105  CE2       27.0310   62.1920   82.4890 C.ar  115  PHE115     -0.0003
    106  CZ        26.3490   61.8920   81.3160 C.ar  115  PHE115     -0.0000
    107  N         26.4310   68.9950   86.9630 N.3   117  CYS117     -0.1235
    108  CA        27.7990   69.4070   87.1840 C.3   117  CYS117      0.1677
    109  C         27.7690   70.7090   87.9670 C.2   117  CYS117      0.2270
    110  O         27.9320   71.7940   87.4150 O.2   117  CYS117     -0.2867
    111  CB        28.5150   69.5710   85.8390 C.3   117  CYS117      0.0956
    112  SG        28.4120   68.0930   84.7710 S.3   117  CYS117     -0.0801
    113  N         23.0870   69.1370   82.3970 N.3   122  TYR122     -0.1227
    114  CA        23.0750   68.8300   80.9640 C.3   122  TYR122      0.1736
    115  C         22.1030   67.6880   80.6850 C.2   122  TYR122      0.2596
    116  O         22.0280   66.7130   81.4360 O.2   122  TYR122     -0.2718
    117  CB        24.4840   68.4490   80.4630 C.3   122  TYR122      0.0548
    118  CG        25.5900   69.4400   80.8090 C.ar  122  TYR122     -0.0200
    119  CD1       26.2700   69.3710   82.0280 C.ar  122  TYR122     -0.0009
    120  CD2       25.9370   70.4590   79.9310 C.ar  122  TYR122     -0.0009
    121  CE1       27.2600   70.2960   82.3590 C.ar  122  TYR122      0.0417
    122  CE2       26.9250   71.3850   80.2560 C.ar  122  TYR122      0.0417
    123  CZ        27.5810   71.3010   81.4680 C.ar  122  TYR122      0.1957
    124  OH        28.5450   72.2310   81.7910 O.3   122  TYR122     -0.2866
    125  N         21.3570   67.8170   79.5980 N.am  123  THR123     -0.1953
    126  CA        20.3810   66.8060   79.2350 C.3   123  THR123      0.1897
    127  C         20.7020   66.1770   77.8790 C.2   123  THR123      0.2313
    128  O         21.6350   66.5900   77.1930 O.2   123  THR123     -0.2863
    129  CB        18.9570   67.4150   79.2120 C.3   123  THR123      0.1794
    130  OG1       18.8990   68.4820   78.2560 O.3   123  THR123     -0.2208
    131  CG2       18.6070   67.9750   80.5770 C.3   123  THR123      0.0378
    132  N         20.5410   68.4560   74.6710 N.3   126  ASP126     -0.1225
    133  CA        21.6190   69.4370   74.5970 C.3   126  ASP126      0.1805
    134  C         22.6400   68.8520   73.6240 C.2   126  ASP126      0.2598
    135  O         23.0490   69.5050   72.6650 O.2   126  ASP126     -0.2718
    136  CB        22.2820   69.6550   75.9680 C.3   126  ASP126      0.1424
    137  CG        21.7520   70.8930   76.6990 C.2   126  ASP126      0.3668
    138  OD1       21.3440   71.8610   76.0150 O.co2 126  ASP126     -0.2456
    139  OD2       21.7660   70.9090   77.9580 O.co2 126  ASP126     -0.2456
    140  N         23.0430   67.6110   73.8790 N.am  127  GLY127     -0.1957
    141  CA        23.9870   66.9470   73.0030 C.3   127  GLY127      0.1869
    142  C         23.4140   66.8510   71.6010 C.2   127  GLY127      0.2309
    143  O         24.1340   67.0150   70.6260 O.2   127  GLY127     -0.2863
    144  N         23.8180   70.0780   69.8740 N.3   130  VAL130     -0.1245
    145  CA        25.2010   70.2370   69.4640 C.3   130  VAL130      0.1561
    146  C         25.5080   69.3970   68.2070 C.2   130  VAL130      0.2260
    147  O         26.6170   69.4600   67.6740 O.2   130  VAL130     -0.2867
    148  CB        26.1600   69.8610   70.6230 C.3   130  VAL130      0.0252
    149  CG1       27.5730   70.3080   70.3060 C.3   130  VAL130      0.0019
    150  CG2       25.6990   70.5210   71.9080 C.3   130  VAL130      0.0019
    151  N         25.3010   65.7610   67.7250 N.3   132  PHE132     -0.1241
    152  CA        25.5340   64.3250   67.8520 C.3   132  PHE132      0.1605
    153  C         24.3720   63.4510   67.4050 C.2   132  PHE132      0.2264
    154  O         23.2940   63.5330   67.9690 O.2   132  PHE132     -0.2867
    155  CB        25.8870   63.9870   69.2910 C.3   132  PHE132      0.0534
    156  CG        27.2370   64.4730   69.7070 C.ar  132  PHE132     -0.0203
    157  CD1       27.3680   65.4690   70.6550 C.ar  132  PHE132     -0.0042
    158  CD2       28.3830   63.9050   69.1730 C.ar  132  PHE132     -0.0042
    159  CE1       28.6200   65.8870   71.0670 C.ar  132  PHE132     -0.0003
    160  CE2       29.6400   64.3150   69.5800 C.ar  132  PHE132     -0.0003
    161  CZ        29.7590   65.3060   70.5290 C.ar  132  PHE132     -0.0000
    162  N         23.9560   57.5930   68.8750 N.3   136  PHE136     -0.1227
    163  CA        25.1510   57.7700   69.6840 C.3   136  PHE136      0.1736
    164  C         24.7740   58.2280   71.0840 C.2   136  PHE136      0.2595
    165  O         25.2860   57.7180   72.0750 O.2   136  PHE136     -0.2718
    166  CB        26.0660   58.8080   69.0530 C.3   136  PHE136      0.0547
    167  CG        27.2150   59.1950   69.9240 C.ar  136  PHE136     -0.0202
    168  CD1       28.2200   58.2930   70.2060 C.ar  136  PHE136     -0.0042
    169  CD2       27.2890   60.4600   70.4670 C.ar  136  PHE136     -0.0042
    170  CE1       29.2830   58.6500   71.0150 C.ar  136  PHE136     -0.0003
    171  CE2       28.3480   60.8220   71.2760 C.ar  136  PHE136     -0.0003
    172  CZ        29.3460   59.9190   71.5500 C.ar  136  PHE136     -0.0000
    173  N         23.8780   59.2070   71.1500 N.am  137  LEU137     -0.1980
    174  CA        23.4080   59.7540   72.4180 C.3   137  LEU137      0.1596
    175  C         22.5390   58.7500   73.1680 C.2   137  LEU137      0.2287
    176  O         22.5520   58.7020   74.3960 O.2   137  LEU137     -0.2864
    177  CB        22.6080   61.0270   72.1620 C.3   137  LEU137      0.0297
    178  CG        23.3690   62.2410   71.6350 C.3   137  LEU137      0.0022
    179  CD1       22.3680   63.2130   71.0590 C.3   137  LEU137      0.0001
    180  CD2       24.1960   62.8870   72.7480 C.3   137  LEU137      0.0001
    181  N         25.1660   56.0720   74.3000 N.3   140  LEU140     -0.1231
    182  CA        25.9490   56.7590   75.3150 C.3   140  LEU140      0.1693
    183  C         25.2010   56.9990   76.6370 C.2   140  LEU140      0.2592
    184  O         25.8070   56.9500   77.7100 O.2   140  LEU140     -0.2718
    185  CB        26.4450   58.0830   74.7300 C.3   140  LEU140      0.0284
    186  CG        26.3710   59.3240   75.6150 C.3   140  LEU140      0.0019
    187  CD1       27.3630   59.2160   76.7570 C.3   140  LEU140      0.0001
    188  CD2       26.6590   60.5410   74.7700 C.3   140  LEU140      0.0001
    189  N         23.8950   57.2650   76.5670 N.am  141  PHE141     -0.1976
    190  CA        23.1020   57.5040   77.7790 C.3   141  PHE141      0.1639
    191  C         22.7430   56.2110   78.4970 C.2   141  PHE141      0.2290
    192  O         22.6180   56.1840   79.7270 O.2   141  PHE141     -0.2864
    193  CB        21.8260   58.3110   77.4690 C.3   141  PHE141      0.0560
    194  CG        21.8990   59.7500   77.9330 C.ar  141  PHE141     -0.0200
    195  CD1       22.4200   60.7390   77.1100 C.ar  141  PHE141     -0.0042
    196  CD2       21.5230   60.0980   79.2280 C.ar  141  PHE141     -0.0042
    197  CE1       22.5680   62.0420   77.5700 C.ar  141  PHE141     -0.0003
    198  CE2       21.6710   61.4020   79.6900 C.ar  141  PHE141     -0.0003
    199  CZ        22.1940   62.3720   78.8610 C.ar  141  PHE141     -0.0000
    200  N         32.5030   57.9680   69.2490 N.3   224  TYR224     -0.1241
    201  CA        32.6240   59.3980   69.4810 C.3   224  TYR224      0.1605
    202  C         33.5370   60.0050   68.4390 C.2   224  TYR224      0.2264
    203  O         33.2210   61.0370   67.8600 O.2   224  TYR224     -0.2867
    204  CB        33.2040   59.6700   70.8650 C.3   224  TYR224      0.0534
    205  CG        33.5860   61.1210   71.0990 C.ar  224  TYR224     -0.0201
    206  CD1       32.6290   62.1330   71.0900 C.ar  224  TYR224     -0.0009
    207  CD2       34.9030   61.4710   71.3660 C.ar  224  TYR224     -0.0009
    208  CE1       32.9780   63.4420   71.3460 C.ar  224  TYR224      0.0417
    209  CE2       35.2570   62.7760   71.6200 C.ar  224  TYR224      0.0417
    210  CZ        34.2940   63.7500   71.6120 C.ar  224  TYR224      0.1957
    211  OH        34.6680   65.0360   71.8810 O.3   224  TYR224     -0.2866
    212  N         41.4090   67.1470   71.5500 N.3   241  LEU241     -0.1245
    213  CA        40.6570   65.9260   71.3030 C.3   241  LEU241      0.1561
    214  C         41.0150   65.3730   69.9340 C.2   241  LEU241      0.2260
    215  O         41.2610   64.1840   69.7870 O.2   241  LEU241     -0.2867
    216  CB        39.1510   66.2010   71.3800 C.3   241  LEU241      0.0270
    217  CG        38.5390   66.1930   72.7800 C.3   241  LEU241      0.0019
    218  CD1       38.4110   64.7630   73.2740 C.3   241  LEU241      0.0001
    219  CD2       39.3830   67.0260   73.7210 C.3   241  LEU241      0.0001
@<TRIPOS>BOND
     1   153   152    1
     2   153   154    2
     3   147   146    2
     4   151   152    1
     5   152   155    1
     6   203   202    2
     7   146   145    1
     8   202   201    1
     9   162   163    1
    10   166   163    1
    11   166   167    1
    12   158   160   ar
    13   158   156   ar
    14   200   201    1
    15   155   156    1
    16   145   144    1
    17   145   148    1
    18   201   204    1
    19   160   161   ar
    20   163   164    1
    21   156   157   ar
    22   215   214    2
    23   167   168   ar
    24   167   169   ar
    25   214   213    1
    26   168   170   ar
    27   149   148    1
    28   169   171   ar
    29   161   159   ar
    30   148   150    1
    31   143   142    2
    32   157   159   ar
    33   204   205    1
    34   170   172   ar
    35   179   178    1
    36   164   173   am
    37   164   165    2
    38   206   205   ar
    39   206   208   ar
    40   205   207   ar
    41   173   174    1
    42   171   172   ar
    43   213   216    1
    44   213   212    1
    45   208   210   ar
    46   207   209   ar
    47   216   217    1
    48   142   141    1
    49   210   209   ar
    50   210   211    1
    51   178   177    1
    52   178   180    1
    53    38    36   ar
    54    38    40   ar
    55    36    35   ar
    56   177   174    1
    57   174   175    1
    58   135   134    2
    59   217   218    1
    60   217   219    1
    61    40    39   ar
    62    12    13    1
    63   141   140    1
    64    14    13    1
    65    14    15    2
    66   175   176    2
    67    35    34    1
    68    35    37   ar
    69    16    13    1
    70    16    17    1
    71    19    17    1
    72   134   140   am
    73   134   133    1
    74    34    31    1
    75    71    69    1
    76    55    54    2
    77    17    18    1
    78    39    37   ar
    79    20    21    1
    80   181   182    1
    81    32    31    1
    82    32    33    2
    83   133   132    1
    84   133   136    1
    85    70    69    1
    86    69    66    1
    87   185   182    1
    88   185   186    1
    89   188   186    1
    90    31    30    1
    91    30    22   am
    92    54    53    1
    93    54    56   am
    94    53    50    1
    95   182   183    1
    96   186   187    1
    97    21    22    1
    98    21    24    1
    99    22    23    2
   100   136   137    1
   101   138   137   ar
   102    66    65    1
   103    66    67    1
   104    87    86   ar
   105    87    85   ar
   106    24    25    1
   107    51    50    1
   108    51    52    2
   109    50    49    1
   110   189   183   am
   111   189   190    1
   112   183   184    2
   113   137   139   ar
   114    86    84   ar
   115    49    43   am
   116    67    68    2
   117   195   197   ar
   118   195   194   ar
   119   128   127    2
   120    85    83   ar
   121   193   190    1
   122   193   194    1
   123    41    42    1
   124   197   199   ar
   125   190   191    1
   126    25    27   ar
   127    25    26   ar
   128   127   126    1
   129   194   196   ar
   130    48    46    1
   131   130   129    1
   132    84    83   ar
   133    43    42    1
   134    43    44    2
   135    27    29   ar
   136    83    82    1
   137   191   192    2
   138    46    45    1
   139    42    45    1
   140    26    28   ar
   141   199   198   ar
   142   129   126    1
   143   129   131    1
   144   196   198   ar
   145   126   125    1
   146    64    63    1
   147    45    47    1
   148    77    76    1
   149   125   115   am
   150    29    28   ar
   151    76    73    1
   152    82    79    1
   153   120   122   ar
   154   120   118   ar
   155    57    58    1
   156   122   123   ar
   157    61    58    1
   158    61    62    1
   159    59    58    1
   160    59    60    2
   161   117   118    1
   162   117   114    1
   163    78    79    1
   164    78    74   am
   165   115   114    1
   166   115   116    2
   167    72    73    1
   168    79    80    1
   169   118   119   ar
   170    63    62    1
   171   104   106   ar
   172   104   102   ar
   173    95    93    1
   174   114   113    1
   175    73    74    1
   176   106   105   ar
   177    74    75    2
   178   123   124    1
   179   123   121   ar
   180   102   101   ar
   181   119   121   ar
   182    80    81    2
   183    93    94    1
   184    93    92    1
   185   105   103   ar
   186   101   103   ar
   187   101   100    1
   188     4     3    2
   189    92    89    1
   190    10     8   ar
   191    10    11   ar
   192     8     6   ar
   193    11     9   ar
   194   100    97    1
   195     6     5    1
   196     6     7   ar
   197    96    97    1
   198     3     2    1
   199     5     2    1
   200     9     7   ar
   201     2     1    1
   202    89    88    1
   203    89    90    1
   204    97    98    1
   205    99    98    2
   206   112   111    1
   207    90    91    2
   208   111   108    1
   209   107   108    1
   210   108   109    1
   211   110   109    2
