@<TRIPOS>MOLECULE
tmp/1xvbB00.pdb
 121 113 0 0 0
SMALL
GASTEIGER

@<TRIPOS>ATOM
      1  N         73.0610   73.2290   37.8080 N.3    93  LEU93      -0.1245
      2  CA        73.5880   71.9410   38.2730 C.3    93  LEU93       0.1561
      3  C         72.3890   71.0500   38.6130 C.2    93  LEU93       0.2260
      4  O         72.4070   69.8480   38.3760 O.2    93  LEU93      -0.2867
      5  CB        74.4460   72.0980   39.5290 C.3    93  LEU93       0.0270
      6  CG        75.6640   71.1720   39.6900 C.3    93  LEU93       0.0019
      7  CD1       75.9820   71.0450   41.1640 C.3    93  LEU93       0.0001
      8  CD2       75.4190   69.8010   39.0910 C.3    93  LEU93       0.0001
      9  N         71.2670   68.9000   35.8730 N.3    96  GLY96      -0.1210
     10  CA        72.1990   67.8350   35.5580 C.3    96  GLY96       0.1956
     11  C         71.9900   66.7000   36.5460 C.2    96  GLY96       0.2611
     12  O         72.0110   65.5220   36.1740 O.2    96  GLY96      -0.2717
     13  N         71.7960   67.0520   37.8140 N.am   97  GLU97      -0.1979
     14  CA        71.5630   66.0480   38.8450 C.3    97  GLU97       0.1602
     15  C         70.2620   65.3340   38.4910 C.2    97  GLU97       0.2287
     16  O         70.1790   64.1080   38.5400 O.2    97  GLU97      -0.2864
     17  CB        71.3970   66.6960   40.2260 C.3    97  GLU97       0.0415
     18  CG        72.5090   67.6460   40.6470 C.3    97  GLU97       0.1163
     19  CD        73.8120   66.9350   40.9400 C.2    97  GLU97       0.3649
     20  OE1       73.8390   65.6910   40.8920 O.co2  97  GLU97      -0.2457
     21  OE2       74.8130   67.6260   41.2400 O.co2  97  GLU97      -0.2457
     22  N         70.4100   63.0690   35.5260 N.3   100  ALA100     -0.1245
     23  CA        71.2890   61.9610   35.8740 C.3   100  ALA100      0.1562
     24  C         70.4530   60.8450   36.5080 C.2   100  ALA100      0.2260
     25  O         70.8210   59.6760   36.4530 O.2   100  ALA100     -0.2867
     26  CB        72.3690   62.4250   36.8520 C.3   100  ALA100      0.0290
     27  N         71.4180   60.9420   42.7690 N.3   127  GLU127     -0.1245
     28  CA        71.0990   62.0770   41.9130 C.3   127  GLU127      0.1567
     29  C         69.7970   62.7250   42.3300 C.2   127  GLU127      0.2260
     30  O         69.5900   63.9060   42.0910 O.2   127  GLU127     -0.2867
     31  CB        71.0450   61.6540   40.4430 C.3   127  GLU127      0.0388
     32  CG        72.3140   60.9660   39.9470 C.3   127  GLU127      0.1160
     33  CD        73.5830   61.7720   40.2040 C.2   127  GLU127      0.3649
     34  OE1       74.6540   61.3160   39.7690 O.co2 127  GLU127     -0.2457
     35  OE2       73.5230   62.8440   40.8410 O.co2 127  GLU127     -0.2457
     36  N         73.9070   68.6910   30.2040 N.3   171  PHE171     -0.1241
     37  CA        73.4230   68.0890   31.4450 C.3   171  PHE171      0.1605
     38  C         72.0210   67.4870   31.4520 C.2   171  PHE171      0.2264
     39  O         71.5910   66.9370   32.4620 O.2   171  PHE171     -0.2867
     40  CB        73.5630   69.0990   32.5890 C.3   171  PHE171      0.0534
     41  CG        74.9290   69.1040   33.2280 C.ar  171  PHE171     -0.0203
     42  CD1       76.0220   68.5470   32.5730 C.ar  171  PHE171     -0.0042
     43  CD2       75.1160   69.6540   34.4900 C.ar  171  PHE171     -0.0042
     44  CE1       77.2830   68.5340   33.1690 C.ar  171  PHE171     -0.0003
     45  CE2       76.3750   69.6480   35.0970 C.ar  171  PHE171     -0.0003
     46  CZ        77.4570   69.0860   34.4350 C.ar  171  PHE171     -0.0000
     47  N         72.8140   63.4750   28.6950 N.3   175  PHE175     -0.1241
     48  CA        72.8350   62.4360   29.7210 C.3   175  PHE175      0.1605
     49  C         71.8460   61.3050   29.4500 C.2   175  PHE175      0.2264
     50  O         72.0300   60.1880   29.9390 O.2   175  PHE175     -0.2867
     51  CB        72.4910   63.0360   31.0910 C.3   175  PHE175      0.0534
     52  CG        73.6000   63.8330   31.7170 C.ar  175  PHE175     -0.0203
     53  CD1       73.3860   64.4960   32.9180 C.ar  175  PHE175     -0.0042
     54  CD2       74.8650   63.8860   31.1380 C.ar  175  PHE175     -0.0042
     55  CE1       74.4090   65.1960   33.5400 C.ar  175  PHE175     -0.0003
     56  CE2       75.9010   64.5870   31.7560 C.ar  175  PHE175     -0.0003
     57  CZ        75.6720   65.2420   32.9600 C.ar  175  PHE175     -0.0000
     58  N         77.8120   61.4220   30.9280 N.3   187  LEU187     -0.1245
     59  CA        77.5720   61.6080   32.3530 C.3   187  LEU187      0.1561
     60  C         78.6730   61.2150   33.3290 C.2   187  LEU187      0.2260
     61  O         79.1260   62.0380   34.1250 O.2   187  LEU187     -0.2867
     62  CB        76.2890   60.8730   32.7590 C.3   187  LEU187      0.0270
     63  CG        76.0420   60.7630   34.2680 C.3   187  LEU187      0.0019
     64  CD1       75.9480   62.1470   34.8640 C.3   187  LEU187      0.0001
     65  CD2       74.7590   59.9800   34.5420 C.3   187  LEU187      0.0001
     66  N         81.6080   63.7520   32.1850 N.3   191  GLY191     -0.1210
     67  CA        81.0150   64.6650   33.1480 C.3   191  GLY191      0.1956
     68  C         81.4710   64.5600   34.5930 C.2   191  GLY191      0.2611
     69  O         82.1200   65.4690   35.1170 O.2   191  GLY191     -0.2717
     70  N         81.1330   63.4510   35.2430 N.am  192  GLU192     -0.1979
     71  CA        81.4920   63.2470   36.6380 C.3   192  GLU192      0.1602
     72  C         82.9880   63.0790   36.9000 C.2   192  GLU192      0.2287
     73  O         83.5600   63.7880   37.7320 O.2   192  GLU192     -0.2864
     74  CB        80.7000   62.0580   37.1960 C.3   192  GLU192      0.0415
     75  CG        79.2270   62.4090   37.3930 C.3   192  GLU192      0.1163
     76  CD        78.3230   61.2120   37.5970 C.2   192  GLU192      0.3649
     77  OE1       77.2300   61.4000   38.1770 O.co2 192  GLU192     -0.2457
     78  OE2       78.6870   60.0960   37.1690 O.co2 192  GLU192     -0.2457
     79  N         84.7180   66.6250   35.5850 N.3   195  PHE195     -0.1227
     80  CA        84.2770   67.8850   36.1800 C.3   195  PHE195      0.1736
     81  C         84.0750   67.9640   37.6910 C.2   195  PHE195      0.2596
     82  O         84.0640   69.0630   38.2440 O.2   195  PHE195     -0.2718
     83  CB        83.0000   68.3460   35.4740 C.3   195  PHE195      0.0547
     84  CG        83.1350   68.4340   33.9750 C.ar  195  PHE195     -0.0202
     85  CD1       82.0120   68.3670   33.1580 C.ar  195  PHE195     -0.0042
     86  CD2       84.3890   68.5710   33.3780 C.ar  195  PHE195     -0.0042
     87  CE1       82.1350   68.4300   31.7710 C.ar  195  PHE195     -0.0003
     88  CE2       84.5220   68.6360   31.9920 C.ar  195  PHE195     -0.0003
     89  CZ        83.3930   68.5650   31.1860 C.ar  195  PHE195     -0.0000
     90  N         83.9210   66.8290   38.3670 N.am  196  THR196     -0.1953
     91  CA        83.7090   66.8510   39.8170 C.3   196  THR196      0.1897
     92  C         84.6340   67.8270   40.5390 C.2   196  THR196      0.2313
     93  O         84.1770   68.6430   41.3400 O.2   196  THR196     -0.2863
     94  CB        83.8940   65.4530   40.4450 C.3   196  THR196      0.1794
     95  OG1       82.8490   64.5860   39.9920 O.3   196  THR196     -0.2208
     96  CG2       83.8370   65.5350   41.9670 C.3   196  THR196      0.0378
     97  N         84.5940   71.5840   38.9630 N.3   199  LEU199     -0.1231
     98  CA        83.2790   72.1990   39.0790 C.3   199  LEU199      0.1693
     99  C         82.7810   72.2080   40.5210 C.2   199  LEU199      0.2591
    100  O         82.7410   73.2590   41.1500 O.2   199  LEU199     -0.2718
    101  CB        82.2620   71.4940   38.1760 C.3   199  LEU199      0.0284
    102  CG        80.9600   72.2610   37.8960 C.3   199  LEU199      0.0019
    103  CD1       80.2550   71.6310   36.7060 C.3   199  LEU199      0.0001
    104  CD2       80.0600   72.2610   39.1200 C.3   199  LEU199      0.0001
    105  N         82.4180   71.0460   41.0570 N.am  200  ILE200     -0.1980
    106  CA        81.9020   71.0080   42.4220 C.3   200  ILE200      0.1595
    107  C         82.8910   71.4780   43.4940 C.2   200  ILE200      0.2287
    108  O         82.5710   72.3710   44.2700 O.2   200  ILE200     -0.2864
    109  CB        81.3700   69.5970   42.7860 C.3   200  ILE200      0.0276
    110  CG1       80.2620   69.1990   41.8030 C.3   200  ILE200      0.0022
    111  CG2       80.8110   69.6050   44.2010 C.3   200  ILE200      0.0022
    112  CD1       79.6310   67.8410   42.0660 C.3   200  ILE200      0.0001
    113  N         80.1250   61.2600   44.9020 N.3   226  GLU226     -0.1245
    114  CA        80.6430   61.1120   43.5470 C.3   226  GLU226      0.1567
    115  C         81.5380   59.9210   43.2350 C.2   226  GLU226      0.2260
    116  O         81.5470   59.4380   42.0990 O.2   226  GLU226     -0.2867
    117  CB        81.3430   62.4000   43.1020 C.3   226  GLU226      0.0388
    118  CG        81.1360   62.6990   41.6180 C.3   226  GLU226      0.1160
    119  CD        79.6720   62.9760   41.2910 C.2   226  GLU226      0.3649
    120  OE1       79.1100   62.3270   40.3790 O.co2 226  GLU226     -0.2457
    121  OE2       79.0850   63.8520   41.9560 O.co2 226  GLU226     -0.2457
@<TRIPOS>BOND
     1    47    48    1
     2    49    48    1
     3    49    50    2
     4    48    51    1
     5    36    37    1
     6    58    59    1
     7    51    52    1
     8    54    52   ar
     9    54    56   ar
    10    89    87   ar
    11    89    88   ar
    12    37    38    1
    13    37    40    1
    14    38    39    2
    15    52    53   ar
    16    56    57   ar
    17    87    85   ar
    18    88    86   ar
    19    66    67    1
    20    59    62    1
    21    59    60    1
    22    42    44   ar
    23    42    41   ar
    24    40    41    1
    25    62    63    1
    26    53    55   ar
    27    57    55   ar
    28    67    68    1
    29    85    84   ar
    30    44    46   ar
    31    41    43   ar
    32    60    61    2
    33    86    84   ar
    34    84    83    1
    35    63    65    1
    36    63    64    1
    37    46    45   ar
    38    43    45   ar
    39    68    69    2
    40    68    70   am
    41    70    71    1
    42    83    80    1
    43    22    23    1
    44    10     9    1
    45    10    11    1
    46    79    80    1
    47    23    24    1
    48    23    26    1
    49    12    11    2
    50    80    81    1
    51    25    24    2
    52    11    13   am
    53    71    72    1
    54    71    74    1
    55   103   102    1
    56    72    73    2
    57    78    76   ar
    58    74    75    1
    59    75    76    1
    60    76    77   ar
    61    81    82    2
    62    81    90   am
    63     1     2    1
    64    13    14    1
    65   102   101    1
    66   102   104    1
    67   101    98    1
    68     2     3    1
    69     2     5    1
    70    90    91    1
    71     4     3    2
    72    15    16    2
    73    15    14    1
    74    14    17    1
    75    97    98    1
    76    98    99    1
    77     8     6    1
    78     5     6    1
    79     6     7    1
    80    34    33   ar
    81    91    94    1
    82    91    92    1
    83    32    33    1
    84    32    31    1
    85    95    94    1
    86    33    35   ar
    87    17    18    1
    88   120   119   ar
    89    31    28    1
    90    94    96    1
    91    99   105   am
    92    99   100    2
    93    92    93    2
    94    18    19    1
    95    20    19   ar
    96    19    21   ar
    97   105   106    1
    98   119   118    1
    99   119   121   ar
   100   118   117    1
   101   110   112    1
   102   110   109    1
   103    28    29    1
   104    28    27    1
   105    30    29    2
   106   116   115    2
   107   106   109    1
   108   106   107    1
   109   109   111    1
   110   117   114    1
   111   115   114    1
   112   107   108    2
   113   114   113    1
