@<TRIPOS>MOLECULE
tmp/1xvbB02.pdb
 133 128 0 0 0
SMALL
GASTEIGER

@<TRIPOS>ATOM
      1  N         72.5380   80.6880   39.0130 N.3    88  VAL88      -0.1231
      2  CA        72.8770   79.8900   37.8390 C.3    88  VAL88       0.1692
      3  C         73.5550   78.5720   38.2050 C.2    88  VAL88       0.2591
      4  O         73.1790   77.5030   37.7140 O.2    88  VAL88      -0.2718
      5  CB        73.8220   80.6650   36.8890 C.3    88  VAL88       0.0266
      6  CG1       74.0420   79.8600   35.6100 C.3    88  VAL88       0.0020
      7  CG2       73.2370   82.0280   36.5680 C.3    88  VAL88       0.0020
      8  N         74.5660   78.6470   39.0630 N.am   89  VAL89      -0.1980
      9  CA        75.2820   77.4450   39.4560 C.3    89  VAL89       0.1595
     10  C         74.3830   76.3610   40.0450 C.2    89  VAL89       0.2287
     11  O         74.4050   75.2180   39.5950 O.2    89  VAL89      -0.2864
     12  CB        76.4010   77.7720   40.4670 C.3    89  VAL89       0.0276
     13  CG1       76.9460   76.4810   41.0810 C.3    89  VAL89       0.0022
     14  CG2       77.5250   78.5370   39.7480 C.3    89  VAL89       0.0022
     15  N         71.3590   75.3630   37.4110 N.3    92  PHE92      -0.1227
     16  CA        71.8560   74.6720   36.2320 C.3    92  PHE92       0.1736
     17  C         72.4150   73.3040   36.6460 C.2    92  PHE92       0.2595
     18  O         72.2470   72.3200   35.9250 O.2    92  PHE92      -0.2718
     19  CB        72.9150   75.5270   35.5050 C.3    92  PHE92       0.0547
     20  CG        72.3300   76.5600   34.5570 C.ar   92  PHE92      -0.0202
     21  CD1       71.0350   77.0500   34.7380 C.ar   92  PHE92      -0.0042
     22  CD2       73.0880   77.0590   33.4940 C.ar   92  PHE92      -0.0042
     23  CE1       70.5000   78.0220   33.8780 C.ar   92  PHE92      -0.0003
     24  CE2       72.5680   78.0330   32.6250 C.ar   92  PHE92      -0.0003
     25  CZ        71.2680   78.5160   32.8190 C.ar   92  PHE92      -0.0000
     26  N         73.0610   73.2290   37.8080 N.am   93  LEU93      -0.1980
     27  CA        73.5880   71.9410   38.2730 C.3    93  LEU93       0.1596
     28  C         72.3890   71.0500   38.6130 C.2    93  LEU93       0.2287
     29  O         72.4070   69.8480   38.3760 O.2    93  LEU93      -0.2864
     30  CB        74.4460   72.0980   39.5290 C.3    93  LEU93       0.0297
     31  CG        75.6640   71.1720   39.6900 C.3    93  LEU93       0.0022
     32  CD1       75.9820   71.0450   41.1640 C.3    93  LEU93       0.0001
     33  CD2       75.4190   69.8010   39.0910 C.3    93  LEU93       0.0001
     34  N         73.0560   74.3730   28.4330 N.3   167  MET167     -0.1245
     35  CA        73.0950   73.5890   29.6600 C.3   167  MET167      0.1570
     36  C         72.2960   72.3010   29.4650 C.2   167  MET167      0.2261
     37  O         72.7520   71.2090   29.8140 O.2   167  MET167     -0.2867
     38  CB        72.5110   74.3930   30.8270 C.3   167  MET167      0.0387
     39  CG        72.6510   73.6960   32.1800 C.3   167  MET167      0.0595
     40  SD        74.3870   73.5790   32.6940 S.3   167  MET167     -0.1393
     41  CE        74.8410   72.0960   31.9820 C.3   167  MET167      0.0692
     42  N         74.2660   69.5700   27.4980 N.3   170  VAL170     -0.1231
     43  CA        75.2620   68.7540   28.1750 C.3   170  VAL170      0.1692
     44  C         74.7630   68.0370   29.4290 C.2   170  VAL170      0.2592
     45  O         75.1390   66.8930   29.6790 O.2   170  VAL170     -0.2718
     46  CB        76.5160   69.5770   28.5560 C.3   170  VAL170      0.0266
     47  CG1       77.2330   70.0370   27.2980 C.3   170  VAL170      0.0020
     48  CG2       76.1190   70.7680   29.4220 C.3   170  VAL170      0.0020
     49  N         73.9070   68.6910   30.2040 N.am  171  PHE171     -0.1976
     50  CA        73.4230   68.0890   31.4450 C.3   171  PHE171      0.1639
     51  C         72.0210   67.4870   31.4520 C.2   171  PHE171      0.2290
     52  O         71.5910   66.9370   32.4620 O.2   171  PHE171     -0.2864
     53  CB        73.5630   69.0990   32.5890 C.3   171  PHE171      0.0560
     54  CG        74.9290   69.1040   33.2280 C.ar  171  PHE171     -0.0200
     55  CD1       76.0220   68.5470   32.5730 C.ar  171  PHE171     -0.0042
     56  CD2       75.1160   69.6540   34.4900 C.ar  171  PHE171     -0.0042
     57  CE1       77.2830   68.5340   33.1690 C.ar  171  PHE171     -0.0003
     58  CE2       76.3750   69.6480   35.0970 C.ar  171  PHE171     -0.0003
     59  CZ        77.4570   69.0860   34.4350 C.ar  171  PHE171     -0.0000
     60  N         84.7180   66.6250   35.5850 N.3   195  PHE195     -0.1241
     61  CA        84.2770   67.8850   36.1800 C.3   195  PHE195      0.1605
     62  C         84.0750   67.9640   37.6910 C.2   195  PHE195      0.2264
     63  O         84.0640   69.0630   38.2440 O.2   195  PHE195     -0.2867
     64  CB        83.0000   68.3460   35.4740 C.3   195  PHE195      0.0534
     65  CG        83.1350   68.4340   33.9750 C.ar  195  PHE195     -0.0203
     66  CD1       82.0120   68.3670   33.1580 C.ar  195  PHE195     -0.0042
     67  CD2       84.3890   68.5710   33.3780 C.ar  195  PHE195     -0.0042
     68  CE1       82.1350   68.4300   31.7710 C.ar  195  PHE195     -0.0003
     69  CE2       84.5220   68.6360   31.9920 C.ar  195  PHE195     -0.0003
     70  CZ        83.3930   68.5650   31.1860 C.ar  195  PHE195     -0.0000
     71  N         84.5940   71.5840   38.9630 N.3   199  LEU199     -0.1245
     72  CA        83.2790   72.1990   39.0790 C.3   199  LEU199      0.1561
     73  C         82.7810   72.2080   40.5210 C.2   199  LEU199      0.2260
     74  O         82.7410   73.2590   41.1500 O.2   199  LEU199     -0.2867
     75  CB        82.2620   71.4940   38.1760 C.3   199  LEU199      0.0270
     76  CG        80.9600   72.2610   37.8960 C.3   199  LEU199      0.0019
     77  CD1       80.2550   71.6310   36.7060 C.3   199  LEU199      0.0001
     78  CD2       80.0600   72.2610   39.1200 C.3   199  LEU199      0.0001
     79  N         80.6220   67.7570   26.1470 N.3   261  GLN261     -0.1245
     80  CA        80.7160   68.3090   27.4900 C.3   261  GLN261      0.1566
     81  C         81.6490   69.5170   27.6000 C.2   261  GLN261      0.2260
     82  O         81.2870   70.5240   28.2070 O.2   261  GLN261     -0.2867
     83  CB        81.1450   67.2170   28.4810 C.3   261  GLN261      0.0367
     84  CG        80.1660   66.0330   28.5580 C.3   261  GLN261      0.0905
     85  CD        78.8060   66.4270   29.1160 C.2   261  GLN261      0.2608
     86  OE1       77.7620   65.9770   28.6330 O.2   261  GLN261     -0.2717
     87  NE2       78.8130   67.2560   30.1470 N.am  261  GLN261     -0.0878
     88  N         80.5000   73.2150   26.2800 N.3   264  TYR264     -0.1227
     89  CA        79.7480   74.1080   27.1520 C.3   264  TYR264      0.1736
     90  C         80.5460   74.4770   28.4050 C.2   264  TYR264      0.2595
     91  O         80.6460   75.6480   28.7720 O.2   264  TYR264     -0.2718
     92  CB        78.4220   73.4450   27.5640 C.3   264  TYR264      0.0548
     93  CG        77.4610   74.3780   28.2670 C.ar  264  TYR264     -0.0200
     94  CD1       76.6670   75.2680   27.5460 C.ar  264  TYR264     -0.0009
     95  CD2       77.3690   74.3940   29.6580 C.ar  264  TYR264     -0.0009
     96  CE1       75.8050   76.1520   28.1960 C.ar  264  TYR264      0.0417
     97  CE2       76.5110   75.2750   30.3180 C.ar  264  TYR264      0.0417
     98  CZ        75.7340   76.1500   29.5830 C.ar  264  TYR264      0.1957
     99  OH        74.8940   77.0270   30.2350 O.3   264  TYR264     -0.2866
    100  N         81.1030   73.4600   29.0530 N.am  265  PHE265     -0.1976
    101  CA        81.8830   73.6050   30.2840 C.3   265  PHE265      0.1639
    102  C         83.0080   74.6280   30.2090 C.2   265  PHE265      0.2290
    103  O         83.1300   75.4900   31.0780 O.2   265  PHE265     -0.2864
    104  CB        82.4390   72.2220   30.6730 C.3   265  PHE265      0.0560
    105  CG        83.4740   72.2380   31.7760 C.ar  265  PHE265     -0.0200
    106  CD1       84.8190   72.4820   31.4890 C.ar  265  PHE265     -0.0042
    107  CD2       83.1140   71.9480   33.0920 C.ar  265  PHE265     -0.0042
    108  CE1       85.7890   72.4310   32.4950 C.ar  265  PHE265     -0.0003
    109  CE2       84.0770   71.8950   34.1100 C.ar  265  PHE265     -0.0003
    110  CZ        85.4160   72.1350   33.8100 C.ar  265  PHE265     -0.0000
    111  N         81.4860   78.4500   29.7250 N.3   268  VAL268     -0.1231
    112  CA        80.5540   78.7610   30.7970 C.3   268  VAL268      0.1692
    113  C         81.0820   78.7160   32.2220 C.2   268  VAL268      0.2591
    114  O         80.8700   79.6600   32.9720 O.2   268  VAL268     -0.2718
    115  CB        79.2910   77.8870   30.6810 C.3   268  VAL268      0.0266
    116  CG1       78.3140   78.2230   31.8100 C.3   268  VAL268      0.0020
    117  CG2       78.6330   78.1320   29.3170 C.3   268  VAL268      0.0020
    118  N         81.7590   77.6440   32.6190 N.am  269  LEU269     -0.1980
    119  CA        82.2650   77.6080   33.9880 C.3   269  LEU269      0.1596
    120  C         83.3220   78.6990   34.2020 C.2   269  LEU269      0.2287
    121  O         83.3740   79.3150   35.2610 O.2   269  LEU269     -0.2864
    122  CB        82.8580   76.2320   34.3270 C.3   269  LEU269      0.0297
    123  CG        82.2610   75.5340   35.5590 C.3   269  LEU269      0.0022
    124  CD1       83.1640   74.3820   35.9800 C.3   269  LEU269      0.0001
    125  CD2       82.1210   76.5050   36.7130 C.3   269  LEU269      0.0001
    126  N         81.3950   81.9370   34.7930 N.3   272  LEU272     -0.1245
    127  CA        80.7860   82.0130   36.1200 C.3   272  LEU272      0.1561
    128  C         81.8040   82.3250   37.2180 C.2   272  LEU272      0.2260
    129  O         81.5440   83.1240   38.1180 O.2   272  LEU272     -0.2867
    130  CB        80.0770   80.6900   36.4410 C.3   272  LEU272      0.0270
    131  CG        78.8240   80.3840   35.6140 C.3   272  LEU272      0.0019
    132  CD1       78.5060   78.9110   35.6790 C.3   272  LEU272      0.0001
    133  CD2       77.6500   81.2140   36.1340 C.3   272  LEU272      0.0001
@<TRIPOS>BOND
     1    79    80    1
     2    88    89    1
     3    89    92    1
     4    89    90    1
     5    47    46    1
     6    80    81    1
     7    80    83    1
     8    42    43    1
     9    94    96   ar
    10    94    93   ar
    11    92    93    1
    12    81    82    2
    13    43    46    1
    14    43    44    1
    15    96    98   ar
    16    93    95   ar
    17    90    91    2
    18    90   100   am
    19    34    35    1
    20    83    84    1
    21    46    48    1
    22    84    85    1
    23    86    85    2
    24   100   101    1
    25    85    87   am
    26   117   115    1
    27    44    45    2
    28    44    49   am
    29    36    35    1
    30    36    37    2
    31    98    99    1
    32    98    97   ar
    33    95    97   ar
    34    35    38    1
    35   111   112    1
    36    49    50    1
    37   102   101    1
    38   102   103    2
    39   101   104    1
    40   104   105    1
    41   115   112    1
    42   115   116    1
    43   112   113    1
    44    38    39    1
    45    70    68   ar
    46    70    69   ar
    47    50    51    1
    48    50    53    1
    49    51    52    2
    50   106   105   ar
    51   106   108   ar
    52    68    66   ar
    53   105   107   ar
    54    41    40    1
    55    69    67   ar
    56    39    40    1
    57   113   118   am
    58   113   114    2
    59   108   110   ar
    60    55    57   ar
    61    55    54   ar
    62    53    54    1
    63   118   119    1
    64    24    25   ar
    65    24    22   ar
    66    25    23   ar
    67   107   109   ar
    68    66    65   ar
    69    57    59   ar
    70    54    56   ar
    71    67    65   ar
    72    22    20   ar
    73   110   109   ar
    74    23    21   ar
    75    65    64    1
    76   119   120    1
    77   119   122    1
    78   120   121    2
    79   122   123    1
    80    59    58   ar
    81    56    58   ar
    82    20    21   ar
    83    20    19    1
    84   126   127    1
    85    64    61    1
    86    19    16    1
    87   123   124    1
    88   123   125    1
    89    60    61    1
    90     6     5    1
    91   131   132    1
    92   131   133    1
    93   131   130    1
    94    18    17    2
    95   127   130    1
    96   127   128    1
    97    61    62    1
    98    16    17    1
    99    16    15    1
   100     7     5    1
   101    17    26   am
   102    77    76    1
   103     5     2    1
   104   128   129    2
   105    62    63    2
   106     4     3    2
   107    26    27    1
   108     2     3    1
   109     2     1    1
   110    76    75    1
   111    76    78    1
   112    75    72    1
   113     3     8   am
   114    27    28    1
   115    27    30    1
   116    29    28    2
   117    71    72    1
   118     8     9    1
   119    72    73    1
   120    33    31    1
   121     9    10    1
   122     9    12    1
   123    30    31    1
   124    11    10    2
   125    31    32    1
   126    14    12    1
   127    12    13    1
   128    73    74    2
