@<TRIPOS>MOLECULE
tmp/1xvbB01.pdb
 142 135 0 0 0
SMALL
GASTEIGER

@<TRIPOS>ATOM
      1  N         77.7360   89.7620   43.5820 N.3    81  LYS81      -0.1245
      2  CA        78.0100   88.9990   42.3670 C.3    81  LYS81       0.1561
      3  C         77.8790   87.4940   42.5840 C.2    81  LYS81       0.2260
      4  O         77.3340   86.7910   41.7380 O.2    81  LYS81      -0.2867
      5  CB        79.4130   89.3290   41.8230 C.3    81  LYS81       0.0271
      6  CG        79.5410   90.7590   41.2880 C.3    81  LYS81       0.0035
      7  CD        80.9570   91.0810   40.7760 C.3    81  LYS81       0.0206
      8  CE        81.2510   90.3890   39.4410 C.3    81  LYS81       0.1093
      9  NZ        82.5800   90.7790   38.8530 N.3    81  LYS81      -0.1314
     10  N         74.3470   86.2280   42.7790 N.3    84  GLU84      -0.1231
     11  CA        73.7930   86.0440   41.4430 C.3    84  GLU84       0.1699
     12  C         74.3270   84.7820   40.7890 C.2    84  GLU84       0.2592
     13  O         73.5690   84.0020   40.1970 O.2    84  GLU84      -0.2718
     14  CB        74.1050   87.2670   40.5770 C.3    84  GLU84       0.0402
     15  CG        73.4930   88.5550   41.1210 C.3    84  GLU84       0.1161
     16  CD        71.9970   88.4200   41.3790 C.2    84  GLU84       0.3649
     17  OE1       71.2430   88.1990   40.4120 O.co2  84  GLU84      -0.2457
     18  OE2       71.5790   88.5260   42.5510 O.co2  84  GLU84      -0.2457
     19  N         75.6370   84.5720   40.8960 N.am   85  THR85      -0.1953
     20  CA        76.2580   83.3760   40.3320 C.3    85  THR85       0.1897
     21  C         75.5910   82.0780   40.7980 C.2    85  THR85       0.2313
     22  O         75.3980   81.1610   40.0040 O.2    85  THR85      -0.2863
     23  CB        77.7530   83.3020   40.7100 C.3    85  THR85       0.1794
     24  OG1       78.4370   84.4250   40.1430 O.3    85  THR85      -0.2208
     25  CG2       78.3780   82.0140   40.1930 C.3    85  THR85       0.0378
     26  N         72.5380   80.6880   39.0130 N.3    88  VAL88      -0.1245
     27  CA        72.8770   79.8900   37.8390 C.3    88  VAL88       0.1561
     28  C         73.5550   78.5720   38.2050 C.2    88  VAL88       0.2260
     29  O         73.1790   77.5030   37.7140 O.2    88  VAL88      -0.2867
     30  CB        73.8220   80.6650   36.8890 C.3    88  VAL88       0.0252
     31  CG1       74.0420   79.8600   35.6100 C.3    88  VAL88       0.0019
     32  CG2       73.2370   82.0280   36.5680 C.3    88  VAL88       0.0019
     33  N         71.3590   75.3630   37.4110 N.3    92  PHE92      -0.1241
     34  CA        71.8560   74.6720   36.2320 C.3    92  PHE92       0.1605
     35  C         72.4150   73.3040   36.6460 C.2    92  PHE92       0.2264
     36  O         72.2470   72.3200   35.9250 O.2    92  PHE92      -0.2867
     37  CB        72.9150   75.5270   35.5050 C.3    92  PHE92       0.0534
     38  CG        72.3300   76.5600   34.5570 C.ar   92  PHE92      -0.0203
     39  CD1       71.0350   77.0500   34.7380 C.ar   92  PHE92      -0.0042
     40  CD2       73.0880   77.0590   33.4940 C.ar   92  PHE92      -0.0042
     41  CE1       70.5000   78.0220   33.8780 C.ar   92  PHE92      -0.0003
     42  CE2       72.5680   78.0330   32.6250 C.ar   92  PHE92      -0.0003
     43  CZ        71.2680   78.5160   32.8190 C.ar   92  PHE92      -0.0000
     44  N         71.7520   80.7920   27.3170 N.3   163  LEU163     -0.1245
     45  CA        72.7270   79.9570   28.0250 C.3   163  LEU163      0.1561
     46  C         72.1060   78.6650   28.5550 C.2   163  LEU163      0.2260
     47  O         72.7760   77.6290   28.6450 O.2   163  LEU163     -0.2867
     48  CB        73.3760   80.7530   29.1640 C.3   163  LEU163      0.0270
     49  CG        74.1690   81.9710   28.6670 C.3   163  LEU163      0.0019
     50  CD1       74.7830   82.7140   29.8460 C.3   163  LEU163      0.0001
     51  CD2       75.2530   81.5190   27.7030 C.3   163  LEU163      0.0001
     52  N         81.4860   78.4500   29.7250 N.3   268  VAL268     -0.1245
     53  CA        80.5540   78.7610   30.7970 C.3   268  VAL268      0.1561
     54  C         81.0820   78.7160   32.2220 C.2   268  VAL268      0.2260
     55  O         80.8700   79.6600   32.9720 O.2   268  VAL268     -0.2867
     56  CB        79.2910   77.8870   30.6810 C.3   268  VAL268      0.0252
     57  CG1       78.3140   78.2230   31.8100 C.3   268  VAL268      0.0019
     58  CG2       78.6330   78.1320   29.3170 C.3   268  VAL268      0.0019
     59  N         83.4120   81.5080   32.8090 N.3   271  MET271     -0.1230
     60  CA        82.6520   82.7430   32.8680 C.3   271  MET271      0.1702
     61  C         82.0750   82.9560   34.2700 C.2   271  MET271      0.2592
     62  O         82.2480   84.0210   34.8690 O.2   271  MET271     -0.2718
     63  CB        81.5430   82.6730   31.8140 C.3   271  MET271      0.0401
     64  CG        80.6570   83.8860   31.7080 C.3   271  MET271      0.0596
     65  SD        79.8330   83.8590   30.1130 S.3   271  MET271     -0.1393
     66  CE        78.7590   82.4130   30.2950 C.3   271  MET271      0.0692
     67  N         81.3950   81.9370   34.7930 N.am  272  LEU272     -0.1980
     68  CA        80.7860   82.0130   36.1200 C.3   272  LEU272      0.1596
     69  C         81.8040   82.3250   37.2180 C.2   272  LEU272      0.2287
     70  O         81.5440   83.1240   38.1180 O.2   272  LEU272     -0.2864
     71  CB        80.0770   80.6900   36.4410 C.3   272  LEU272      0.0297
     72  CG        78.8240   80.3840   35.6140 C.3   272  LEU272      0.0022
     73  CD1       78.5060   78.9110   35.6790 C.3   272  LEU272      0.0001
     74  CD2       77.6500   81.2140   36.1340 C.3   272  LEU272      0.0001
     75  N         83.9220   85.9860   36.0630 N.3   275  TYR275     -0.1227
     76  CA        83.0440   87.1390   35.9390 C.3   275  TYR275      0.1736
     77  C         81.8760   87.1540   36.9120 C.2   275  TYR275      0.2596
     78  O         81.1760   88.1570   37.0150 O.2   275  TYR275     -0.2718
     79  CB        82.5100   87.2490   34.5120 C.3   275  TYR275      0.0548
     80  CG        83.5770   87.5430   33.4870 C.ar  275  TYR275     -0.0200
     81  CD1       84.3050   86.5120   32.8890 C.ar  275  TYR275     -0.0009
     82  CD2       83.8750   88.8570   33.1310 C.ar  275  TYR275     -0.0009
     83  CE1       85.3070   86.7840   31.9560 C.ar  275  TYR275      0.0417
     84  CE2       84.8780   89.1420   32.2030 C.ar  275  TYR275      0.0417
     85  CZ        85.5850   88.1020   31.6220 C.ar  275  TYR275      0.1957
     86  OH        86.5600   88.3860   30.6960 O.3   275  TYR275     -0.2866
     87  N         81.6620   86.0560   37.6310 N.am  276  GLY276     -0.1957
     88  CA        80.5550   86.0210   38.5750 C.3   276  GLY276      0.1869
     89  C         81.0190   86.1590   40.0090 C.2   276  GLY276      0.2309
     90  O         80.3070   85.8090   40.9470 O.2   276  GLY276     -0.2863
     91  N         81.3500   85.9080   27.7720 N.3   330  TYR330     -0.1241
     92  CA        80.7530   86.8800   28.6890 C.3   330  TYR330      0.1605
     93  C         80.3460   88.1540   27.9560 C.2   330  TYR330      0.2264
     94  O         79.3610   88.8070   28.3280 O.2   330  TYR330     -0.2867
     95  CB        81.6940   87.2290   29.8430 C.3   330  TYR330      0.0534
     96  CG        81.0020   87.9910   30.9550 C.ar  330  TYR330     -0.0201
     97  CD1       80.0620   87.3630   31.7770 C.ar  330  TYR330     -0.0009
     98  CD2       81.2580   89.3460   31.1660 C.ar  330  TYR330     -0.0009
     99  CE1       79.3940   88.0650   32.7870 C.ar  330  TYR330      0.0417
    100  CE2       80.5930   90.0630   32.1750 C.ar  330  TYR330      0.0417
    101  CZ        79.6640   89.4090   32.9820 C.ar  330  TYR330      0.1957
    102  OH        79.0230   90.0910   33.9930 O.3   330  TYR330     -0.2866
    103  N         76.9900   87.3020   26.8380 N.3   333  ALA333     -0.1245
    104  CA        76.0510   87.1820   27.9470 C.3   333  ALA333      0.1562
    105  C         75.6860   88.5600   28.4980 C.2   333  ALA333      0.2260
    106  O         74.5250   88.8190   28.8140 O.2   333  ALA333     -0.2867
    107  CB        76.6430   86.3160   29.0480 C.3   333  ALA333      0.0290
    108  N         69.4020   86.6870   36.3310 N.3   342  PHE342     -0.1227
    109  CA        70.4460   87.0300   37.2870 C.3   342  PHE342      0.1736
    110  C         71.0410   88.3860   36.8990 C.2   342  PHE342      0.2595
    111  O         70.9700   88.8010   35.7380 O.2   342  PHE342     -0.2718
    112  CB        71.5110   85.9300   37.2430 C.3   342  PHE342      0.0547
    113  CG        71.8420   85.4890   35.8470 C.ar  342  PHE342     -0.0202
    114  CD1       72.6340   86.2880   35.0200 C.ar  342  PHE342     -0.0042
    115  CD2       71.3090   84.3140   35.3290 C.ar  342  PHE342     -0.0042
    116  CE1       72.8840   85.9180   33.6950 C.ar  342  PHE342     -0.0003
    117  CE2       71.5540   83.9360   34.0060 C.ar  342  PHE342     -0.0003
    118  CZ        72.3440   84.7420   33.1880 C.ar  342  PHE342     -0.0000
    119  N         71.6230   89.0780   37.8700 N.am  343  ARG343     -0.1966
    120  CA        72.1960   90.3910   37.6270 C.3   343  ARG343      0.1729
    121  C         73.6860   90.2780   37.3210 C.2   343  ARG343      0.2616
    122  O         74.4080   89.5470   37.9940 O.2   343  ARG343     -0.2715
    123  CB        71.9440   91.2800   38.8450 C.3   343  ARG343      0.0348
    124  CG        70.4490   91.3910   39.1940 C.3   343  ARG343      0.0492
    125  CD        70.2210   92.1920   40.4580 C.3   343  ARG343      0.2205
    126  NE        70.7270   91.4960   41.6340 N.pl3 343  ARG343     -0.0865
    127  CZ        71.5070   92.0570   42.5500 C.cat 343  ARG343      0.5346
    128  NH1       71.8710   93.3280   42.4260 N.pl3 343  ARG343      0.1354
    129  NH2       71.9320   91.3460   43.5850 N.pl3 343  ARG343      0.1354
    130  N         74.1280   91.0030   36.2950 N.am  344  LEU344     -0.1963
    131  CA        75.5250   90.9870   35.8670 C.3   344  LEU344      0.1728
    132  C         76.2800   92.2460   36.2590 C.2   344  LEU344      0.2616
    133  O         75.6870   93.3110   36.4250 O.2   344  LEU344     -0.2715
    134  CB        75.6050   90.8120   34.3480 C.3   344  LEU344      0.0311
    135  CG        74.9930   89.5230   33.8000 C.3   344  LEU344      0.0022
    136  CD1       75.2780   89.3870   32.3090 C.3   344  LEU344      0.0001
    137  CD2       75.5730   88.3550   34.5490 C.3   344  LEU344      0.0001
    138  N         77.5970   92.1210   36.3930 N.am  345  ALA345     -0.1977
    139  CA        78.4350   93.2530   36.7620 C.3   345  ALA345      0.1597
    140  C         79.6800   93.3250   35.8930 C.2   345  ALA345      0.2287
    141  O         80.3020   92.3040   35.5980 O.2   345  ALA345     -0.2864
    142  CB        78.8400   93.1490   38.2290 C.3   345  ALA345      0.0319
@<TRIPOS>BOND
     1   103   104    1
     2    44    45    1
     3    51    49    1
     4    91    92    1
     5   104   105    1
     6   104   107    1
     7    93    94    2
     8    93    92    1
     9    45    46    1
    10    45    48    1
    11   105   106    2
    12    46    47    2
    13    49    48    1
    14    49    50    1
    15    92    95    1
    16    58    56    1
    17    52    53    1
    18    95    96    1
    19    65    66    1
    20    65    64    1
    21    56    53    1
    22    56    57    1
    23    86    85    1
    24    53    54    1
    25    96    98   ar
    26    96    97   ar
    27    98   100   ar
    28    85    83   ar
    29    85    84   ar
    30    64    63    1
    31    97    99   ar
    32    63    60    1
    33    83    81   ar
    34   100   101   ar
    35    84    82   ar
    36    54    55    2
    37   136   135    1
    38    42    43   ar
    39    42    40   ar
    40    99   101   ar
    41    59    60    1
    42    43    41   ar
    43    60    61    1
    44    81    80   ar
    45   101   102    1
    46    82    80   ar
    47   118   116   ar
    48   118   117   ar
    49    80    79    1
    50    40    38   ar
    51   116   114   ar
    52   135   134    1
    53   135   137    1
    54    41    39   ar
    55   117   115   ar
    56    61    67   am
    57    61    62    2
    58   134   131    1
    59    79    76    1
    60    38    39   ar
    61    38    37    1
    62    67    68    1
    63   114   113   ar
    64   115   113   ar
    65    37    34    1
    66   141   140    2
    67    31    30    1
    68    72    73    1
    69    72    74    1
    70    72    71    1
    71   111   110    2
    72   113   112    1
    73   131   132    1
    74   131   130    1
    75   140   139    1
    76    36    35    2
    77    76    75    1
    78    76    77    1
    79    68    71    1
    80    68    69    1
    81    34    35    1
    82    34    33    1
    83   132   138   am
    84   132   133    2
    85   130   121   am
    86   108   109    1
    87   138   139    1
    88    32    30    1
    89   139   142    1
    90    30    27    1
    91   110   109    1
    92   110   119   am
    93    77    78    2
    94    77    87   am
    95    69    70    2
    96   112   109    1
    97   121   120    1
    98   121   122    2
    99   120   119    1
   100   120   123    1
   101    87    88    1
   102    29    28    2
   103    27    28    1
   104    27    26    1
   105    88    89    1
   106   123   124    1
   107     9     8    1
   108   124   125    1
   109     8     7    1
   110    22    21    2
   111    89    90    2
   112    24    23    1
   113    25    23    1
   114    13    12    2
   115    20    23    1
   116    20    21    1
   117    20    19    1
   118    17    16   ar
   119   125   126    1
   120    14    15    1
   121    14    11    1
   122     7     6    1
   123    12    19   am
   124    12    11    1
   125    15    16    1
   126     6     5    1
   127    16    18   ar
   128    11    10    1
   129   126   127    2
   130     4     3    2
   131     5     2    1
   132     2     3    1
   133     2     1    1
   134   128   127    1
   135   127   129    1
