@<TRIPOS>MOLECULE
tmp/1xvbB04.pdb
 119 117 0 0 0
SMALL
GASTEIGER

@<TRIPOS>ATOM
      1  N         73.5160   90.6150   26.1470 N.3   336  LEU336     -0.1245
      2  CA        72.1410   90.1120   26.1540 C.3   336  LEU336      0.1561
      3  C         71.6110   89.9850   27.5800 C.2   336  LEU336      0.2260
      4  O         70.7270   89.1650   27.8510 O.2   336  LEU336     -0.2867
      5  CB        72.0930   88.7410   25.4680 C.3   336  LEU336      0.0270
      6  CG        72.5350   88.7020   24.0000 C.3   336  LEU336      0.0019
      7  CD1       72.6620   87.2660   23.5300 C.3   336  LEU336      0.0001
      8  CD2       71.5320   89.4610   23.1470 C.3   336  LEU336      0.0001
      9  N         73.7260   94.9500   23.1870 N.3   388  LEU388     -0.1245
     10  CA        73.3650   94.2500   21.9660 C.3   388  LEU388      0.1561
     11  C         73.2870   95.2470   20.8120 C.2   388  LEU388      0.2260
     12  O         73.4810   94.8890   19.6500 O.2   388  LEU388     -0.2867
     13  CB        72.0340   93.5170   22.1470 C.3   388  LEU388      0.0270
     14  CG        70.7970   94.3230   22.5430 C.3   388  LEU388      0.0019
     15  CD1       70.2020   95.0030   21.3190 C.3   388  LEU388      0.0001
     16  CD2       69.7750   93.3780   23.1640 C.3   388  LEU388      0.0001
     17  N         76.5710   95.6040   19.1210 N.3   391  PHE391     -0.1227
     18  CA        76.8520   94.5040   18.1990 C.3   391  PHE391      0.1736
     19  C         76.2270   94.7740   16.8340 C.2   391  PHE391      0.2595
     20  O         76.8330   94.5000   15.7930 O.2   391  PHE391     -0.2718
     21  CB        76.3260   93.1750   18.7570 C.3   391  PHE391      0.0547
     22  CG        77.2450   92.5450   19.7650 C.ar  391  PHE391     -0.0202
     23  CD1       77.3780   93.0880   21.0380 C.ar  391  PHE391     -0.0042
     24  CD2       78.0250   91.4450   19.4180 C.ar  391  PHE391     -0.0042
     25  CE1       78.2810   92.5480   21.9510 C.ar  391  PHE391     -0.0003
     26  CE2       78.9290   90.9000   20.3240 C.ar  391  PHE391     -0.0003
     27  CZ        79.0580   91.4530   21.5920 C.ar  391  PHE391     -0.0000
     28  N         75.0100   95.3070   16.8460 N.am  392  ILE392     -0.1980
     29  CA        74.3130   95.6360   15.6100 C.3   392  ILE392      0.1595
     30  C         75.1000   96.7170   14.8740 C.2   392  ILE392      0.2287
     31  O         75.4500   96.5650   13.6970 O.2   392  ILE392     -0.2864
     32  CB        72.8890   96.1770   15.8950 C.3   392  ILE392      0.0276
     33  CG1       72.0450   95.0990   16.5800 C.3   392  ILE392      0.0022
     34  CG2       72.2290   96.6320   14.5910 C.3   392  ILE392      0.0022
     35  CD1       71.8330   93.8650   15.7300 C.3   392  ILE392      0.0001
     36  N         78.3740   92.7830   14.2360 N.3   396  HIS396     -0.1227
     37  CA        78.9470   91.6010   14.8610 C.3   396  HIS396      0.1737
     38  C         77.8170   90.6490   15.2080 C.2   396  HIS396      0.2438
     39  O         77.3160   90.6570   16.3310 O.2   396  HIS396     -0.2733
     40  CB        79.7010   91.9910   16.1290 C.3   396  HIS396      0.0758
     41  CG        80.9950   92.6930   15.8670 C.ar  396  HIS396      0.0818
     42  ND1       81.4160   93.7790   16.6050 N.ar  396  HIS396     -0.2268
     43  CD2       81.9800   92.4410   14.9740 C.ar  396  HIS396      0.1154
     44  CE1       82.6060   94.1640   16.1790 C.ar  396  HIS396      0.1986
     45  NE2       82.9710   93.3680   15.1900 N.ar  396  HIS396     -0.2212
     46  N         77.3970   89.8210   14.2360 N.am  397  PRO397     -0.2718
     47  CA        76.3180   88.8450   14.4120 C.3   397  PRO397      0.1535
     48  C         76.6160   87.7890   15.4720 C.2   397  PRO397      0.2598
     49  O         77.7490   87.3200   15.6010 O.2   397  PRO397     -0.2715
     50  CB        76.1880   88.2210   13.0210 C.3   397  PRO397      0.0310
     51  CG        76.6260   89.3170   12.1150 C.3   397  PRO397      0.0237
     52  CD        77.8360   89.8510   12.8290 C.3   397  PRO397      0.0939
     53  N         75.5870   87.4240   16.2280 N.am  398  ILE398     -0.1978
     54  CA        75.7070   86.3930   17.2530 C.3   398  ILE398      0.1596
     55  C         74.8680   85.1960   16.8080 C.2   398  ILE398      0.2287
     56  O         73.6460   85.3030   16.6580 O.2   398  ILE398     -0.2864
     57  CB        75.1760   86.8710   18.6170 C.3   398  ILE398      0.0276
     58  CG1       76.0240   88.0370   19.1350 C.3   398  ILE398      0.0022
     59  CG2       75.1950   85.7090   19.6110 C.3   398  ILE398      0.0022
     60  CD1       75.5820   88.5510   20.4940 C.3   398  ILE398      0.0001
     61  N         66.6660   83.0370   18.4950 N.3   453  PHE453     -0.1241
     62  CA        66.3580   83.9310   17.3820 C.3   453  PHE453      0.1605
     63  C         65.1820   83.4010   16.5560 C.2   453  PHE453      0.2264
     64  O         64.3160   84.1670   16.1420 O.2   453  PHE453     -0.2867
     65  CB        67.5940   84.1260   16.5030 C.3   453  PHE453      0.0534
     66  CG        68.7540   84.7440   17.2340 C.ar  453  PHE453     -0.0203
     67  CD1       69.9220   84.0200   17.4530 C.ar  453  PHE453     -0.0042
     68  CD2       68.6620   86.0380   17.7400 C.ar  453  PHE453     -0.0042
     69  CE1       70.9840   84.5750   18.1700 C.ar  453  PHE453     -0.0003
     70  CE2       69.7160   86.6050   18.4590 C.ar  453  PHE453     -0.0003
     71  CZ        70.8780   85.8700   18.6750 C.ar  453  PHE453     -0.0000
     72  N         61.7160   92.6600   22.5270 N.3   461  LEU461     -0.1245
     73  CA        62.3220   92.1440   23.7580 C.3   461  LEU461      0.1561
     74  C         61.4810   92.1340   25.0360 C.2   461  LEU461      0.2260
     75  O         61.2960   91.0780   25.6430 O.2   461  LEU461     -0.2867
     76  CB        63.6480   92.8690   24.0280 C.3   461  LEU461      0.0270
     77  CG        64.4640   92.4060   25.2400 C.3   461  LEU461      0.0019
     78  CD1       64.6960   90.9000   25.1840 C.3   461  LEU461      0.0001
     79  CD2       65.7970   93.1480   25.2570 C.3   461  LEU461      0.0001
     80  N         63.7270   97.0240   20.9370 N.3   500  CYS500     -0.1221
     81  CA        64.6650   96.0680   20.3640 C.3   500  CYS500      0.1808
     82  C         63.8320   94.8720   19.9020 C.2   500  CYS500      0.2601
     83  O         63.0140   94.3470   20.6600 O.2   500  CYS500     -0.2717
     84  CB        65.6950   95.6380   21.4090 C.3   500  CYS500      0.0970
     85  SG        66.7490   96.9870   22.0000 S.3   500  CYS500     -0.0800
     86  N         64.0330   94.4540   18.6540 N.am  501  VAL501     -0.1965
     87  CA        63.2870   93.3390   18.0730 C.3   501  VAL501      0.1727
     88  C         64.2310   92.2490   17.5900 C.2   501  VAL501      0.2616
     89  O         65.2260   92.5410   16.9260 O.2   501  VAL501     -0.2715
     90  CB        62.4360   93.8170   16.8670 C.3   501  VAL501      0.0290
     91  CG1       61.6260   92.6610   16.3000 C.3   501  VAL501      0.0023
     92  CG2       61.5210   94.9530   17.2990 C.3   501  VAL501      0.0023
     93  N         63.9100   90.9960   17.9130 N.am  502  PHE502     -0.1960
     94  CA        64.7430   89.8610   17.5110 C.3   502  PHE502      0.1771
     95  C         64.7090   89.5640   16.0170 C.2   502  PHE502      0.2619
     96  O         63.6600   89.6390   15.3750 O.2   502  PHE502     -0.2715
     97  CB        64.3390   88.5810   18.2600 C.3   502  PHE502      0.0574
     98  CG        64.7330   88.5680   19.7140 C.ar  502  PHE502     -0.0200
     99  CD1       63.8830   89.0870   20.6850 C.ar  502  PHE502     -0.0042
    100  CD2       65.9600   88.0380   20.1090 C.ar  502  PHE502     -0.0042
    101  CE1       64.2460   89.0790   22.0310 C.ar  502  PHE502     -0.0003
    102  CE2       66.3350   88.0260   21.4550 C.ar  502  PHE502     -0.0003
    103  CZ        65.4760   88.5470   22.4170 C.ar  502  PHE502     -0.0000
    104  N         65.8700   89.2070   15.4800 N.am  503  LYS503     -0.1977
    105  CA        66.0070   88.8650   14.0730 C.3   503  LYS503      0.1596
    106  C         66.8330   87.5880   13.9490 C.2   503  LYS503      0.2287
    107  O         67.7480   87.3510   14.7410 O.2   503  LYS503     -0.2864
    108  CB        66.7070   89.9960   13.3120 C.3   503  LYS503      0.0298
    109  CG        65.9180   91.2990   13.2530 C.3   503  LYS503      0.0038
    110  CD        66.6900   92.3890   12.5130 C.3   503  LYS503      0.0206
    111  CE        67.0130   91.9820   11.0790 C.3   503  LYS503      0.1093
    112  NZ        67.8240   93.0220   10.3790 N.3   503  LYS503     -0.1314
    113  N         69.6410   85.9860   12.5960 N.3   505  PRO505     -0.2116
    114  CA        70.9130   86.3480   11.9610 C.3   505  PRO505      0.1372
    115  C         71.3070   85.5470   10.7250 C.2   505  PRO505      0.2244
    116  O         72.0160   86.0570    9.8560 O.2   505  PRO505     -0.2868
    117  CB        71.9200   86.1840   13.0970 C.3   505  PRO505      0.0268
    118  CG        71.3420   85.0340   13.8700 C.3   505  PRO505      0.0207
    119  CD        69.8780   85.4200   13.9370 C.3   505  PRO505      0.0892
@<TRIPOS>BOND
     1   116   115    2
     2   112   111    1
     3   115   114    1
     4   111   110    1
     5   114   113    1
     6   114   117    1
     7    51    52    1
     8    51    50    1
     9   110   109    1
    10   113   119    1
    11    52    46    1
    12    50    47    1
    13   117   118    1
    14   109   108    1
    15   108   105    1
    16    31    30    2
    17   118   119    1
    18   106   105    1
    19   106   107    2
    20   105   104    1
    21    46    47    1
    22    46    38   am
    23    36    37    1
    24    47    48    1
    25    34    32    1
    26    37    38    1
    27    37    40    1
    28    30    29    1
    29    43    45   ar
    30    43    41   ar
    31    45    44   ar
    32    38    39    2
    33    96    95    2
    34    48    49    2
    35    48    53   am
    36   104    95   am
    37    29    32    1
    38    29    28    1
    39    35    33    1
    40    20    19    2
    41    41    40    1
    42    41    42   ar
    43    32    33    1
    44    95    94    1
    45    64    63    2
    46    44    42   ar
    47    53    54    1
    48    91    90    1
    49    65    66    1
    50    65    62    1
    51    63    62    1
    52    56    55    2
    53    55    54    1
    54    19    28   am
    55    19    18    1
    56    90    92    1
    57    90    87    1
    58    89    88    2
    59    66    67   ar
    60    66    68   ar
    61    54    57    1
    62    62    61    1
    63    67    69   ar
    64    94    93    1
    65    94    97    1
    66    88    93   am
    67    88    87    1
    68    68    70   ar
    69    87    86    1
    70    69    71   ar
    71    18    21    1
    72    18    17    1
    73    97    98    1
    74    70    71   ar
    75    57    58    1
    76    57    59    1
    77    86    82   am
    78    21    22    1
    79    58    60    1
    80    24    22   ar
    81    24    26   ar
    82    12    11    2
    83    98   100   ar
    84    98    99   ar
    85    22    23   ar
    86    82    81    1
    87    82    83    2
    88   100   102   ar
    89    26    27   ar
    90    81    80    1
    91    81    84    1
    92    99   101   ar
    93    11    10    1
    94    23    25   ar
    95    15    14    1
    96    84    85    1
    97   102   103   ar
    98    27    25   ar
    99    10    13    1
   100    10     9    1
   101   101   103   ar
   102    13    14    1
   103    72    73    1
   104    14    16    1
   105     8     6    1
   106     7     6    1
   107    73    76    1
   108    73    74    1
   109     6     5    1
   110    76    77    1
   111    74    75    2
   112    78    77    1
   113    77    79    1
   114     5     2    1
   115     1     2    1
   116     2     3    1
   117     3     4    2
