@<TRIPOS>MOLECULE
tmp/1xvdB00.pdb
 119 113 0 0 0
SMALL
GASTEIGER

@<TRIPOS>ATOM
      1  N         78.4960   89.6140   43.8500 N.3    81  LYS81      -0.1245
      2  CA        78.7550   88.8800   42.6190 C.3    81  LYS81       0.1561
      3  C         78.6210   87.3740   42.8290 C.2    81  LYS81       0.2260
      4  O         78.0440   86.6710   41.9950 O.2    81  LYS81      -0.2867
      5  CB        80.1520   89.2110   42.0820 C.3    81  LYS81       0.0271
      6  CG        80.2920   90.6710   41.6440 C.3    81  LYS81       0.0035
      7  CD        81.6750   90.9940   41.0860 C.3    81  LYS81       0.0206
      8  CE        81.9820   90.1660   39.8550 C.3    81  LYS81       0.1093
      9  NZ        83.2310   90.6120   39.2220 N.3    81  LYS81      -0.1314
     10  N         75.1270   85.9860   43.1270 N.3    84  GLU84      -0.1231
     11  CA        74.5680   85.8380   41.7770 C.3    84  GLU84       0.1699
     12  C         75.1290   84.6000   41.0900 C.2    84  GLU84       0.2592
     13  O         74.4070   83.8400   40.4380 O.2    84  GLU84      -0.2718
     14  CB        74.9030   87.0650   40.9230 C.3    84  GLU84       0.0402
     15  CG        74.3030   88.3490   41.4490 C.3    84  GLU84       0.1161
     16  CD        72.8070   88.2400   41.6250 C.2    84  GLU84       0.3649
     17  OE1       72.1000   88.0660   40.6150 O.co2  84  GLU84      -0.2457
     18  OE2       72.3320   88.3200   42.7740 O.co2  84  GLU84      -0.2457
     19  N         76.4310   84.4030   41.2330 N.am   85  THR85      -0.1953
     20  CA        77.0850   83.2570   40.6200 C.3    85  THR85       0.1897
     21  C         76.4760   81.9390   41.0900 C.2    85  THR85       0.2313
     22  O         76.3010   81.0080   40.2980 O.2    85  THR85      -0.2863
     23  CB        78.5850   83.2380   40.9460 C.3    85  THR85       0.1794
     24  OG1       79.2030   84.4130   40.4080 O.3    85  THR85      -0.2208
     25  CG2       79.2410   81.9970   40.3560 C.3    85  THR85       0.0378
     26  N         73.4040   80.3820   39.3240 N.3    88  VAL88      -0.1245
     27  CA        73.6920   79.5600   38.1620 C.3    88  VAL88       0.1561
     28  C         74.3840   78.2440   38.5110 C.2    88  VAL88       0.2260
     29  O         73.9540   77.1740   38.0860 O.2    88  VAL88      -0.2867
     30  CB        74.5720   80.3280   37.1470 C.3    88  VAL88       0.0252
     31  CG1       74.9150   79.4290   35.9720 C.3    88  VAL88       0.0019
     32  CG2       73.8360   81.5560   36.6580 C.3    88  VAL88       0.0019
     33  N         72.5570   80.5490   27.8930 N.3   163  LEU163     -0.1245
     34  CA        73.5480   79.7130   28.5670 C.3   163  LEU163      0.1561
     35  C         72.9380   78.4030   29.0720 C.2   163  LEU163      0.2260
     36  O         73.6240   77.3830   29.1570 O.2   163  LEU163     -0.2867
     37  CB        74.1870   80.4720   29.7360 C.3   163  LEU163      0.0270
     38  CG        74.9510   81.7560   29.3980 C.3   163  LEU163      0.0019
     39  CD1       75.4990   82.3810   30.6810 C.3   163  LEU163      0.0001
     40  CD2       76.0800   81.4400   28.4270 C.3   163  LEU163      0.0001
     41  N         84.3390   81.3380   33.1520 N.3   271  MET271     -0.1230
     42  CA        83.5830   82.5750   33.1730 C.3   271  MET271      0.1702
     43  C         82.9590   82.7680   34.5470 C.2   271  MET271      0.2592
     44  O         83.1320   83.8140   35.1750 O.2   271  MET271     -0.2718
     45  CB        82.5070   82.5170   32.0890 C.3   271  MET271      0.0401
     46  CG        81.5370   83.6750   32.0820 C.3   271  MET271      0.0596
     47  SD        80.4710   83.5600   30.6380 S.3   271  MET271     -0.1393
     48  CE        79.3100   82.2480   31.1380 C.3   271  MET271      0.0692
     49  N         82.2420   81.7510   35.0190 N.am  272  LEU272     -0.1980
     50  CA        81.5980   81.8260   36.3290 C.3   272  LEU272      0.1596
     51  C         82.6160   82.1360   37.4180 C.2   272  LEU272      0.2287
     52  O         82.3840   82.9870   38.2730 O.2   272  LEU272     -0.2864
     53  CB        80.8790   80.5130   36.6480 C.3   272  LEU272      0.0297
     54  CG        79.6720   80.2130   35.7600 C.3   272  LEU272      0.0022
     55  CD1       79.2000   78.7950   35.9990 C.3   272  LEU272      0.0001
     56  CD2       78.5570   81.2280   36.0470 C.3   272  LEU272      0.0001
     57  N         84.7280   85.7850   36.3690 N.3   275  TYR275     -0.1227
     58  CA        83.8620   86.9530   36.2930 C.3   275  TYR275      0.1736
     59  C         82.7380   86.9890   37.3170 C.2   275  TYR275      0.2596
     60  O         82.1320   88.0420   37.5290 O.2   275  TYR275     -0.2718
     61  CB        83.2640   87.0960   34.8950 C.3   275  TYR275      0.0548
     62  CG        84.2920   87.3970   33.8450 C.ar  275  TYR275     -0.0200
     63  CD1       84.9800   86.3700   33.2010 C.ar  275  TYR275     -0.0009
     64  CD2       84.5940   88.7180   33.5020 C.ar  275  TYR275     -0.0009
     65  CE1       85.9470   86.6460   32.2370 C.ar  275  TYR275      0.0417
     66  CE2       85.5600   89.0060   32.5380 C.ar  275  TYR275      0.0417
     67  CZ        86.2320   87.9650   31.9120 C.ar  275  TYR275      0.1957
     68  OH        87.1980   88.2460   30.9750 O.3   275  TYR275     -0.2866
     69  N         82.4590   85.8530   37.9500 N.am  276  GLY276     -0.1957
     70  CA        81.3960   85.8200   38.9390 C.3   276  GLY276      0.1869
     71  C         81.8880   85.9920   40.3640 C.2   276  GLY276      0.2309
     72  O         81.1730   85.6720   41.3170 O.2   276  GLY276     -0.2863
     73  N         82.0320   85.6940   28.1250 N.3   330  TYR330     -0.1241
     74  CA        81.4580   86.6910   29.0160 C.3   330  TYR330      0.1605
     75  C         81.0130   87.9550   28.2720 C.2   330  TYR330      0.2264
     76  O         80.0490   88.6010   28.6790 O.2   330  TYR330     -0.2867
     77  CB        82.4330   87.0540   30.1390 C.3   330  TYR330      0.0534
     78  CG        81.7760   87.8410   31.2530 C.ar  330  TYR330     -0.0201
     79  CD1       80.7740   87.2710   32.0340 C.ar  330  TYR330     -0.0009
     80  CD2       82.1270   89.1670   31.5000 C.ar  330  TYR330     -0.0009
     81  CE1       80.1320   88.0000   33.0380 C.ar  330  TYR330      0.0417
     82  CE2       81.4920   89.9100   32.5000 C.ar  330  TYR330      0.0417
     83  CZ        80.4950   89.3200   33.2670 C.ar  330  TYR330      0.1957
     84  OH        79.8760   90.0410   34.2720 O.3   330  TYR330     -0.2866
     85  N         77.7120   87.0960   27.1970 N.3   333  ALA333     -0.1245
     86  CA        76.8350   86.9800   28.3580 C.3   333  ALA333      0.1562
     87  C         76.4120   88.3640   28.8550 C.2   333  ALA333      0.2260
     88  O         75.2260   88.6150   29.0990 O.2   333  ALA333     -0.2867
     89  CB        77.5410   86.2160   29.4720 C.3   333  ALA333      0.0290
     90  N         70.0410   86.5090   36.6790 N.3   342  PHE342     -0.1227
     91  CA        71.0800   86.8800   37.6280 C.3   342  PHE342      0.1736
     92  C         71.6720   88.2270   37.2360 C.2   342  PHE342      0.2595
     93  O         71.4780   88.6920   36.1130 O.2   342  PHE342     -0.2718
     94  CB        72.1700   85.8120   37.6260 C.3   342  PHE342      0.0547
     95  CG        72.4990   85.3130   36.2620 C.ar  342  PHE342     -0.0202
     96  CD1       73.2710   86.0800   35.3920 C.ar  342  PHE342     -0.0042
     97  CD2       71.9650   84.1150   35.8060 C.ar  342  PHE342     -0.0042
     98  CE1       73.4970   85.6600   34.0820 C.ar  342  PHE342     -0.0003
     99  CE2       72.1860   83.6860   34.4990 C.ar  342  PHE342     -0.0003
    100  CZ        72.9510   84.4600   33.6350 C.ar  342  PHE342     -0.0000
    101  N         72.4030   88.8430   38.1590 N.am  343  ARG343     -0.1966
    102  CA        72.9940   90.1480   37.9150 C.3   343  ARG343      0.1729
    103  C         74.4950   90.0750   37.6670 C.2   343  ARG343      0.2616
    104  O         75.2390   89.4710   38.4370 O.2   343  ARG343     -0.2715
    105  CB        72.6920   91.0670   39.1020 C.3   343  ARG343      0.0348
    106  CG        71.2060   91.1340   39.4420 C.3   343  ARG343      0.0492
    107  CD        71.0080   91.1240   40.9350 C.3   343  ARG343      0.2205
    108  NE        71.6680   92.2690   41.5220 N.pl3 343  ARG343     -0.0865
    109  CZ        72.3170   92.2500   42.6760 C.cat 343  ARG343      0.5346
    110  NH1       72.3940   91.1310   43.3790 N.pl3 343  ARG343      0.1354
    111  NH2       72.9090   93.3590   43.1100 N.pl3 343  ARG343      0.1354
    112  N         74.9330   90.7080   36.5850 N.am  344  LEU344     -0.1977
    113  CA        76.3370   90.7020   36.2200 C.3   344  LEU344      0.1596
    114  C         77.0570   92.0030   36.5750 C.2   344  LEU344      0.2287
    115  O         76.4340   93.0590   36.7200 O.2   344  LEU344     -0.2864
    116  CB        76.4670   90.4260   34.7210 C.3   344  LEU344      0.0297
    117  CG        75.8480   89.1030   34.2540 C.3   344  LEU344      0.0022
    118  CD1       75.9290   88.9980   32.7310 C.3   344  LEU344      0.0001
    119  CD2       76.5810   87.9400   34.9180 C.3   344  LEU344      0.0001
@<TRIPOS>BOND
     1    85    86    1
     2    33    34    1
     3    73    74    1
     4    75    76    2
     5    75    74    1
     6    86    87    1
     7    86    89    1
     8    40    38    1
     9    34    35    1
    10    34    37    1
    11    87    88    2
    12    74    77    1
    13    35    36    2
    14    38    37    1
    15    38    39    1
    16    77    78    1
    17    47    48    1
    18    47    46    1
    19    68    67    1
    20    78    80   ar
    21    78    79   ar
    22    80    82   ar
    23    67    65   ar
    24    67    66   ar
    25    79    81   ar
    26    46    45    1
    27    45    42    1
    28    65    63   ar
    29    82    83   ar
    30    66    64   ar
    31   118   117    1
    32    81    83   ar
    33    41    42    1
    34    42    43    1
    35    63    62   ar
    36    83    84    1
    37    64    62   ar
    38   100    98   ar
    39   100    99   ar
    40    62    61    1
    41    98    96   ar
    42   117   116    1
    43   117   119    1
    44    99    97   ar
    45    43    49   am
    46    43    44    2
    47   116   113    1
    48    61    58    1
    49    49    50    1
    50    96    95   ar
    51    54    55    1
    52    54    56    1
    53    54    53    1
    54    97    95   ar
    55    31    30    1
    56    93    92    2
    57   113   114    1
    58   113   112    1
    59    95    94    1
    60    58    57    1
    61    58    59    1
    62    50    53    1
    63    50    51    1
    64   114   115    2
    65   112   103   am
    66    32    30    1
    67    90    91    1
    68    30    27    1
    69    92    91    1
    70    92   101   am
    71    59    60    2
    72    59    69   am
    73    51    52    2
    74    94    91    1
    75   103   102    1
    76   103   104    2
    77   102   101    1
    78   102   105    1
    79    69    70    1
    80    29    28    2
    81    27    28    1
    82    27    26    1
    83    70    71    1
    84   105   106    1
    85     9     8    1
    86   106   107    1
    87     8     7    1
    88    22    21    2
    89    25    23    1
    90    71    72    2
    91    24    23    1
    92    13    12    2
    93    17    16   ar
    94    20    23    1
    95    20    21    1
    96    20    19    1
    97    14    15    1
    98    14    11    1
    99   107   108    1
   100     7     6    1
   101    12    19   am
   102    12    11    1
   103    15    16    1
   104   108   109    2
   105    16    18   ar
   106     6     5    1
   107    11    10    1
   108     4     3    2
   109     5     2    1
   110     2     3    1
   111     2     1    1
   112   109   111    1
   113   109   110    1
