@<TRIPOS>MOLECULE
tmp/1xviA00.pdb
 84 76 0 0 0
SMALL
GASTEIGER

@<TRIPOS>ATOM
      1  N          5.7610    2.8300   21.0850 N.3     7  VAL7       -0.1245
      2  CA         6.6540    2.2570   20.0890 C.3     7  VAL7        0.1561
      3  C          6.5670    3.0540   18.7930 C.2     7  VAL7        0.2260
      4  O          5.4720    3.2120   18.2240 O.2     7  VAL7       -0.2867
      5  CB         6.3150    0.7620   19.7960 C.3     7  VAL7        0.0252
      6  CG1        7.3300    0.1660   18.7890 C.3     7  VAL7        0.0019
      7  CG2        6.2780   -0.0560   21.0860 C.3     7  VAL7        0.0019
      8  N         -0.4270   -6.8690   16.5590 N.3    30  LEU30      -0.1245
      9  CA        -0.4940   -5.4300   16.8200 C.3    30  LEU30       0.1561
     10  C         -1.8320   -5.0050   17.4100 C.2    30  LEU30       0.2260
     11  O         -1.8920   -4.0770   18.2170 O.2    30  LEU30      -0.2867
     12  CB        -0.1460   -4.6310   15.5670 C.3    30  LEU30       0.0270
     13  CG         1.3010   -4.8190   15.0550 C.3    30  LEU30       0.0019
     14  CD1        1.5290   -4.0320   13.7670 C.3    30  LEU30       0.0001
     15  CD2        2.3380   -4.4110   16.0900 C.3    30  LEU30       0.0001
     16  N         -1.4690   -5.6850   21.0990 N.3    33  LEU33      -0.1245
     17  CA        -0.6590   -4.6160   21.7020 C.3    33  LEU33       0.1561
     18  C         -1.4380   -3.3280   21.9310 C.2    33  LEU33       0.2260
     19  O         -1.2780   -2.6440   22.9430 O.2    33  LEU33      -0.2867
     20  CB         0.5550   -4.3140   20.8330 C.3    33  LEU33       0.0270
     21  CG         1.8490   -5.0350   21.1620 C.3    33  LEU33       0.0019
     22  CD1        1.6930   -6.5620   21.1170 C.3    33  LEU33       0.0001
     23  CD2        2.8940   -4.5630   20.1510 C.3    33  LEU33       0.0001
     24  N         -0.1690   -0.5050   24.4540 N.3    38  VAL38      -0.1245
     25  CA         1.1910   -0.2920   23.9410 C.3    38  VAL38       0.1561
     26  C          1.0850    0.1740   22.4830 C.2    38  VAL38       0.2260
     27  O          1.2300   -0.6340   21.5570 O.2    38  VAL38      -0.2867
     28  CB         2.0590   -1.5670   24.0270 C.3    38  VAL38       0.0252
     29  CG1        3.5170   -1.2650   23.5710 C.3    38  VAL38       0.0019
     30  CG2        2.0510   -2.1200   25.4270 C.3    38  VAL38       0.0019
     31  N          1.5870    1.3410   18.8340 N.3    40  VAL40      -0.1245
     32  CA         2.6210    1.3200   17.8340 C.3    40  VAL40       0.1561
     33  C          2.3500    2.4960   16.8810 C.2    40  VAL40       0.2260
     34  O          1.3310    2.5210   16.1620 O.2    40  VAL40      -0.2867
     35  CB         2.6620   -0.0350   17.0880 C.3    40  VAL40       0.0252
     36  CG1        3.6220    0.0200   15.9080 C.3    40  VAL40       0.0019
     37  CG2        3.0630   -1.1430   18.0360 C.3    40  VAL40       0.0019
     38  N          7.7720    6.5590   27.9940 N.3   205  THR205     -0.1218
     39  CA         9.0020    5.8250   27.7080 C.3   205  THR205      0.1862
     40  C          8.8510    5.3440   26.2680 C.2   205  THR205      0.2287
     41  O          7.7760    4.8930   25.8610 O.2   205  THR205     -0.2866
     42  CB         9.2110    4.6460   28.7070 C.3   205  THR205      0.1770
     43  OG1        9.1850    5.1790   30.0280 O.3   205  THR205     -0.2211
     44  CG2       10.5780    3.9580   28.5080 C.3   205  THR205      0.0375
     45  N         10.2990    3.5150   22.5350 N.3   207  LEU207     -0.1245
     46  CA        11.1240    2.5320   21.8410 C.3   207  LEU207      0.1561
     47  C         11.0390    2.7760   20.3300 C.2   207  LEU207      0.2260
     48  O          9.9400    2.8910   19.7770 O.2   207  LEU207     -0.2867
     49  CB        10.6380    1.1160   22.1610 C.3   207  LEU207      0.0270
     50  CG        11.2640   -0.0620   21.4060 C.3   207  LEU207      0.0019
     51  CD1       12.6900   -0.3380   21.8790 C.3   207  LEU207      0.0001
     52  CD2       10.4200   -1.3020   21.5780 C.3   207  LEU207      0.0001
     53  N         12.0160    1.3170   16.4990 N.3   209  LEU209     -0.1245
     54  CA        12.3810    0.1760   15.6810 C.3   209  LEU209      0.1561
     55  C         12.6720    0.6690   14.2720 C.2   209  LEU209      0.2260
     56  O         11.8200    1.2800   13.6320 O.2   209  LEU209     -0.2867
     57  CB        11.2500   -0.8610   15.6720 C.3   209  LEU209      0.0270
     58  CG        10.6460   -1.2970   17.0320 C.3   209  LEU209      0.0019
     59  CD1        9.4420   -2.1780   16.8330 C.3   209  LEU209      0.0001
     60  CD2       11.6620   -2.0060   17.8970 C.3   209  LEU209      0.0001
     61  N         14.9050    4.0610   23.9210 N.3   224  TYR224     -0.1227
     62  CA        15.4420    2.7690   23.5230 C.3   224  TYR224      0.1736
     63  C         15.2800    2.6200   22.0290 C.2   224  TYR224      0.2595
     64  O         14.2480    2.9710   21.4840 O.2   224  TYR224     -0.2718
     65  CB        14.7800    1.6170   24.3050 C.3   224  TYR224      0.0548
     66  CG        14.9190    1.7880   25.8060 C.ar  224  TYR224     -0.0200
     67  CD1       16.1180    1.4690   26.4520 C.ar  224  TYR224     -0.0009
     68  CD2       13.8650    2.2960   26.5850 C.ar  224  TYR224     -0.0009
     69  CE1       16.2720    1.6450   27.8440 C.ar  224  TYR224      0.0417
     70  CE2       14.0070    2.4730   27.9720 C.ar  224  TYR224      0.0417
     71  CZ        15.2190    2.1420   28.5850 C.ar  224  TYR224      0.1957
     72  OH        15.3920    2.3020   29.9420 O.3   224  TYR224     -0.2866
     73  N         16.3240    2.1550   21.3580 N.am  225  ALA225     -0.1966
     74  CA        16.2690    2.0060   19.8970 C.3   225  ALA225      0.1728
     75  C         16.9840    0.7360   19.4880 C.2   225  ALA225      0.2616
     76  O         18.0520    0.4250   20.0280 O.2   225  ALA225     -0.2715
     77  CB        16.8910    3.2300   19.1910 C.3   225  ALA225      0.0334
     78  N         16.3680   -0.0120   18.5710 N.am  226  VAL226     -0.1977
     79  CA        16.9600   -1.2280   18.0230 C.3   226  VAL226      0.1596
     80  C         16.8380   -1.2490   16.5070 C.2   226  VAL226      0.2287
     81  O         15.9130   -0.6540   15.9220 O.2   226  VAL226     -0.2864
     82  CB        16.4010   -2.5760   18.6460 C.3   226  VAL226      0.0276
     83  CG1       16.4330   -2.5480   20.1720 C.3   226  VAL226      0.0022
     84  CG2       15.0080   -2.8740   18.2010 C.3   226  VAL226      0.0022
@<TRIPOS>BOND
     1    56    55    2
     2    14    13    1
     3    55    54    1
     4    13    12    1
     5    13    15    1
     6    12     9    1
     7    57    54    1
     8    57    58    1
     9    54    53    1
    10    36    35    1
    11    81    80    2
    12    34    33    2
    13    80    79    1
    14     8     9    1
    15     9    10    1
    16    59    58    1
    17    33    32    1
    18    58    60    1
    19    35    32    1
    20    35    37    1
    21    10    11    2
    22    32    31    1
    23    79    78    1
    24    79    82    1
    25    84    82    1
    26     4     3    2
    27    78    75   am
    28    82    83    1
    29     6     5    1
    30     3     2    1
    31    77    74    1
    32    75    74    1
    33    75    76    2
    34    48    47    2
    35     5     2    1
    36     5     7    1
    37    74    73    1
    38     2     1    1
    39    23    21    1
    40    47    46    1
    41    20    21    1
    42    20    17    1
    43    16    17    1
    44    22    21    1
    45    73    63   am
    46    50    52    1
    47    50    51    1
    48    50    49    1
    49    64    63    2
    50    27    26    2
    51    17    18    1
    52    46    49    1
    53    46    45    1
    54    18    19    2
    55    63    62    1
    56    26    25    1
    57    62    61    1
    58    62    65    1
    59    29    28    1
    60    25    28    1
    61    25    24    1
    62    28    30    1
    63    65    66    1
    64    66    67   ar
    65    66    68   ar
    66    41    40    2
    67    40    39    1
    68    67    69   ar
    69    68    70   ar
    70    39    38    1
    71    39    42    1
    72    69    71   ar
    73    70    71   ar
    74    44    42    1
    75    71    72    1
    76    42    43    1
