@<TRIPOS>MOLECULE
tmp/1xvpC00.pdb
 194 183 0 0 0
SMALL
GASTEIGER

@<TRIPOS>ATOM
      1  N         56.8110   55.4800   52.9360 N.3    42  ILE42      -0.1245
      2  CA        56.0800   55.9550   51.7700 C.3    42  ILE42       0.1561
      3  C         55.1170   57.0860   52.1650 C.2    42  ILE42       0.2260
      4  O         54.9320   58.0410   51.4130 O.2    42  ILE42      -0.2867
      5  CB        55.2700   54.8110   51.1370 C.3    42  ILE42       0.0252
      6  CG1       56.2130   53.7500   50.5860 C.3    42  ILE42       0.0019
      7  CG2       54.3770   55.3420   50.0460 C.3    42  ILE42       0.0019
      8  CD1       55.5060   52.6980   49.7960 C.3    42  ILE42       0.0001
      9  N         57.1020   60.1900   53.1920 N.3    45  ALA45      -0.1231
     10  CA        57.6610   60.7540   51.9710 C.3    45  ALA45       0.1694
     11  C         56.6140   61.6100   51.2540 C.2    45  ALA45       0.2591
     12  O         56.8370   62.7930   51.0070 O.2    45  ALA45      -0.2718
     13  CB        58.1460   59.6340   51.0560 C.3    45  ALA45       0.0304
     14  N         55.4730   61.0040   50.9250 N.am   46  ALA46      -0.1980
     15  CA        54.3950   61.7140   50.2520 C.3    46  ALA46       0.1597
     16  C         54.0860   62.9890   51.0150 C.2    46  ALA46       0.2287
     17  O         53.9180   64.0430   50.4170 O.2    46  ALA46      -0.2864
     18  CB        53.1600   60.8420   50.1780 C.3    46  ALA46       0.0319
     19  N         57.0380   65.5880   50.3480 N.3    49  GLN49      -0.1245
     20  CA        57.0680   65.9690   48.9450 C.3    49  GLN49       0.1566
     21  C         55.7910   66.6410   48.4680 C.2    49  GLN49       0.2260
     22  O         55.5330   66.7440   47.2660 O.2    49  GLN49      -0.2867
     23  CB        57.3660   64.7270   48.1100 C.3    49  GLN49       0.0367
     24  CG        58.6670   64.0640   48.5260 C.3    49  GLN49       0.0905
     25  CD        59.8660   64.9000   48.1600 C.2    49  GLN49       0.2608
     26  OE1       60.2550   64.9520   46.9970 O.2    49  GLN49      -0.2717
     27  NE2       60.4500   65.5750   49.1450 N.am   49  GLN49      -0.0878
     28  N         48.1010   66.0650   42.4950 N.3    79  TRP79      -0.1227
     29  CA        49.2350   65.9080   43.3990 C.3    79  TRP79       0.1737
     30  C         49.7060   64.4630   43.4920 C.2    79  TRP79       0.2595
     31  O         50.8890   64.1990   43.7150 O.2    79  TRP79      -0.2718
     32  CB        48.8830   66.3920   44.8010 C.3    79  TRP79       0.0564
     33  CG        47.9310   65.4950   45.5220 C.ar   79  TRP79       0.0003
     34  CD1       46.5800   65.6300   45.6050 C.ar   79  TRP79       0.0946
     35  CD2       48.2600   64.3020   46.2360 C.ar   79  TRP79       0.0152
     36  NE1       46.0440   64.5970   46.3260 N.ar   79  TRP79      -0.2442
     37  CE2       47.0560   63.7650   46.7260 C.ar   79  TRP79       0.0810
     38  CE3       49.4570   63.6320   46.5080 C.ar   79  TRP79       0.0012
     39  CZ2       47.0120   62.5880   47.4740 C.ar   79  TRP79       0.0191
     40  CZ3       49.4130   62.4660   47.2480 C.ar   79  TRP79       0.0001
     41  CH2       48.1980   61.9550   47.7240 C.ar   79  TRP79       0.0015
     42  N         48.7790   63.5250   43.3400 N.am   80  ASN80      -0.1974
     43  CA        49.1410   62.1270   43.4060 C.3    80  ASN80       0.1688
     44  C         50.0060   61.8230   42.1870 C.2    80  ASN80       0.2292
     45  O         51.1920   61.5280   42.3240 O.2    80  ASN80      -0.2864
     46  CB        47.8810   61.2500   43.4230 C.3    80  ASN80       0.1181
     47  CG        48.1940   59.7700   43.6450 C.2    80  ASN80       0.2629
     48  OD1       48.4300   59.0120   42.6970 O.2    80  ASN80      -0.2716
     49  ND2       48.2090   59.3600   44.9050 N.am   80  ASN80      -0.0877
     50  N         53.6580   63.4830   42.2360 N.3    83  LEU83      -0.1231
     51  CA        54.6660   62.8170   43.0460 C.3    83  LEU83       0.1693
     52  C         55.1180   61.4850   42.4390 C.2    83  LEU83       0.2591
     53  O         56.3160   61.1810   42.4310 O.2    83  LEU83      -0.2718
     54  CB        54.1300   62.6010   44.4510 C.3    83  LEU83       0.0284
     55  CG        53.8760   63.9210   45.1620 C.3    83  LEU83       0.0019
     56  CD1       53.8480   63.7040   46.6650 C.3    83  LEU83       0.0001
     57  CD2       54.9860   64.8740   44.8120 C.3    83  LEU83       0.0001
     58  N         54.1640   60.6970   41.9400 N.am   84  ILE84      -0.1980
     59  CA        54.4790   59.4220   41.3180 C.3    84  ILE84       0.1595
     60  C         55.4580   59.6680   40.1610 C.2    84  ILE84       0.2287
     61  O         56.4310   58.9280   39.9910 O.2    84  ILE84      -0.2864
     62  CB        53.2020   58.7190   40.8150 C.3    84  ILE84       0.0276
     63  CG1       52.3010   58.3840   42.0020 C.3    84  ILE84       0.0022
     64  CG2       53.5490   57.4400   40.0780 C.3    84  ILE84       0.0022
     65  CD1       51.0430   57.6660   41.6070 C.3    84  ILE84       0.0001
     66  N         57.6000   62.0800   39.8760 N.3    86  SER86      -0.1202
     67  CA        58.8560   62.3920   40.5450 C.3    86  SER86       0.2020
     68  C         59.6660   61.1740   40.9830 C.2    86  SER86       0.2618
     69  O         60.7450   60.9120   40.4450 O.2    86  SER86      -0.2717
     70  CB        58.6060   63.2600   41.7920 C.3    86  SER86       0.2103
     71  OG        58.5930   64.6490   41.5090 O.3    86  SER86      -0.2182
     72  N         59.1480   60.4330   41.9640 N.am   87  PHE87      -0.1975
     73  CA        59.8770   59.2850   42.4950 C.3    87  PHE87       0.1639
     74  C         60.2110   58.1600   41.5090 C.2    87  PHE87       0.2290
     75  O         61.0550   57.3170   41.7950 O.2    87  PHE87      -0.2864
     76  CB        59.1690   58.7430   43.7620 C.3    87  PHE87       0.0560
     77  CG        57.9730   57.8530   43.5040 C.ar   87  PHE87      -0.0200
     78  CD1       58.1080   56.6350   42.8500 C.ar   87  PHE87      -0.0042
     79  CD2       56.7320   58.1900   44.0090 C.ar   87  PHE87      -0.0042
     80  CE1       57.0280   55.7710   42.7160 C.ar   87  PHE87      -0.0003
     81  CE2       55.6470   57.3360   43.8830 C.ar   87  PHE87      -0.0003
     82  CZ        55.7940   56.1230   43.2370 C.ar   87  PHE87      -0.0000
     83  N         63.3880   59.8910   39.4980 N.3    90  ARG90      -0.1245
     84  CA        64.4830   59.9360   40.4380 C.3    90  ARG90       0.1563
     85  C         65.0960   58.5410   40.5330 C.2    90  ARG90       0.2260
     86  O         66.3230   58.3770   40.5220 O.2    90  ARG90      -0.2867
     87  CB        63.9630   60.3490   41.8030 C.3    90  ARG90       0.0307
     88  CG        65.0540   60.5960   42.7930 C.3    90  ARG90       0.0489
     89  CD        64.5360   60.6930   44.2100 C.3    90  ARG90       0.2205
     90  NE        63.5170   61.7210   44.3770 N.pl3  90  ARG90      -0.0865
     91  CZ        62.2850   61.4750   44.8170 C.cat  90  ARG90       0.5346
     92  NH1       61.9250   60.2370   45.1320 N.pl3  90  ARG90       0.1354
     93  NH2       61.4100   62.4650   44.9480 N.pl3  90  ARG90       0.1354
     94  N         63.0250   51.5710   44.4200 N.3    98  ILE98      -0.1245
     95  CA        62.4580   52.9170   44.3760 C.3    98  ILE98       0.1561
     96  C         63.1580   53.8150   45.3720 C.2    98  ILE98       0.2260
     97  O         63.2660   53.4920   46.5560 O.2    98  ILE98      -0.2867
     98  CB        60.9540   52.9440   44.7460 C.3    98  ILE98       0.0252
     99  CG1       60.1170   52.2190   43.6860 C.3    98  ILE98       0.0019
    100  CG2       60.5000   54.3920   44.9230 C.3    98  ILE98       0.0019
    101  CD1       59.8700   53.0250   42.4350 C.3    98  ILE98       0.0001
    102  N         62.9690   56.7510   47.5890 N.3   100  LEU100     -0.1231
    103  CA        61.9830   57.6130   48.2580 C.3   100  LEU100      0.1693
    104  C         62.6910   58.8290   48.8380 C.2   100  LEU100      0.2591
    105  O         63.7780   58.7030   49.4010 O.2   100  LEU100     -0.2718
    106  CB        61.2580   56.8630   49.3960 C.3   100  LEU100      0.0284
    107  CG        60.6040   55.4870   49.1610 C.3   100  LEU100      0.0019
    108  CD1       59.9570   55.0310   50.4540 C.3   100  LEU100      0.0001
    109  CD2       59.5750   55.5430   48.0430 C.3   100  LEU100      0.0001
    110  N         62.0620   59.9980   48.7130 N.am  101  ALA101     -0.1980
    111  CA        62.6240   61.2620   49.2010 C.3   101  ALA101      0.1597
    112  C         62.8390   61.3680   50.7180 C.2   101  ALA101      0.2287
    113  O         63.0070   62.4770   51.2460 O.2   101  ALA101     -0.2864
    114  CB        61.7710   62.4310   48.7140 C.3   101  ALA101      0.0319
    115  N         63.7190   51.4530   48.5510 N.3   106  VAL106     -0.1245
    116  CA        62.7760   50.3650   48.7260 C.3   106  VAL106      0.1561
    117  C         62.9720   49.3270   47.6300 C.2   106  VAL106      0.2260
    118  O         62.6060   49.5520   46.4770 O.2   106  VAL106     -0.2867
    119  CB        61.3280   50.8920   48.7050 C.3   106  VAL106      0.0252
    120  CG1       60.3680   49.7600   49.0180 C.3   106  VAL106      0.0019
    121  CG2       61.1710   52.0470   49.7110 C.3   106  VAL106      0.0019
    122  N         59.1240   45.8190   49.0040 N.3   111  ALA111     -0.1245
    123  CA        57.8070   46.1740   48.4990 C.3   111  ALA111      0.1562
    124  C         56.8560   45.0120   48.6730 C.2   111  ALA111      0.2260
    125  O         55.9040   45.0960   49.4380 O.2   111  ALA111     -0.2867
    126  CB        57.8960   46.5480   47.0330 C.3   111  ALA111      0.0290
    127  N         52.9420   45.7140   48.7920 N.3   116  VAL116     -0.1245
    128  CA        52.8310   46.7290   47.7420 C.3   116  VAL116      0.1561
    129  C         53.5980   46.3290   46.4790 C.2   116  VAL116      0.2260
    130  O         53.9690   47.1670   45.6750 O.2   116  VAL116     -0.2867
    131  CB        53.3360   48.0890   48.2430 C.3   116  VAL116      0.0252
    132  CG1       52.2290   48.7970   49.0110 C.3   116  VAL116      0.0019
    133  CG2       54.5360   47.8880   49.1450 C.3   116  VAL116      0.0019
    134  N         51.7720   46.7650   42.7960 N.3   119  ILE119     -0.1231
    135  CA        51.8810   48.1310   42.3000 C.3   119  ILE119      0.1692
    136  C         53.3390   48.5540   42.0010 C.2   119  ILE119      0.2592
    137  O         53.6110   49.1840   40.9700 O.2   119  ILE119     -0.2718
    138  CB        51.2050   49.1250   43.3100 C.3   119  ILE119      0.0266
    139  CG1       51.1350   50.5190   42.6970 C.3   119  ILE119      0.0019
    140  CG2       51.9340   49.1360   44.6470 C.3   119  ILE119      0.0020
    141  CD1       50.3120   50.5730   41.4180 C.3   119  ILE119      0.0001
    142  N         54.2660   48.2010   42.8980 N.am  120  PHE120     -0.1976
    143  CA        55.7000   48.5040   42.7530 C.3   120  PHE120      0.1639
    144  C         56.1390   48.0670   41.3590 C.2   120  PHE120      0.2290
    145  O         56.6530   48.8500   40.5820 O.2   120  PHE120     -0.2864
    146  CB        56.4920   47.7480   43.8480 C.3   120  PHE120      0.0560
    147  CG        57.9940   47.9770   43.8170 C.ar  120  PHE120     -0.0200
    148  CD1       58.8060   47.2810   42.9220 C.ar  120  PHE120     -0.0042
    149  CD2       58.5930   48.8960   44.6850 C.ar  120  PHE120     -0.0042
    150  CE1       60.1770   47.4950   42.8900 C.ar  120  PHE120     -0.0003
    151  CE2       59.9730   49.1160   44.6560 C.ar  120  PHE120     -0.0003
    152  CZ        60.7590   48.4150   43.7580 C.ar  120  PHE120     -0.0000
    153  N         54.9550   50.3320   38.8170 N.3   123  VAL123     -0.1245
    154  CA        55.6490   51.6080   38.7900 C.3   123  VAL123      0.1561
    155  C         56.9520   51.4000   38.0030 C.2   123  VAL123      0.2260
    156  O         57.2160   52.1210   37.0530 O.2   123  VAL123     -0.2867
    157  CB        55.9540   52.1230   40.2270 C.3   123  VAL123      0.0252
    158  CG1       56.9330   53.2990   40.1720 C.3   123  VAL123      0.0019
    159  CG2       54.6510   52.5600   40.9110 C.3   123  VAL123      0.0019
    160  N         47.4280   53.7590   43.4940 N.3   206  CYS206     -0.1235
    161  CA        48.1970   54.1750   44.6630 C.3   206  CYS206      0.1677
    162  C         47.3640   55.0010   45.6140 C.2   206  CYS206      0.2270
    163  O         47.8360   55.4170   46.6520 O.2   206  CYS206     -0.2867
    164  CB        49.4060   54.9950   44.2490 C.3   206  CYS206      0.0956
    165  SG        50.6070   54.0510   43.3530 S.3   206  CYS206     -0.0801
    166  N         45.6920   52.0450   47.8720 N.3   209  HIS209     -0.1226
    167  CA        46.6860   51.7020   48.8830 C.3   209  HIS209      0.1752
    168  C         46.7390   52.7870   49.9550 C.2   209  HIS209      0.2595
    169  O         46.6360   52.4820   51.1320 O.2   209  HIS209     -0.2718
    170  CB        48.0880   51.5300   48.2640 C.3   209  HIS209      0.0759
    171  CG        48.3030   50.2230   47.5480 C.ar  209  HIS209      0.0818
    172  ND1       47.8480   49.9830   46.2670 N.ar  209  HIS209     -0.2268
    173  CD2       48.9730   49.1040   47.9200 C.ar  209  HIS209      0.1154
    174  CE1       48.2310   48.7780   45.8800 C.ar  209  HIS209      0.1986
    175  NE2       48.9160   48.2250   46.8640 N.ar  209  HIS209     -0.2212
    176  N         46.8910   54.0470   49.5570 N.am  210  LEU210     -0.1980
    177  CA        46.9520   55.1320   50.5280 C.3   210  LEU210      0.1596
    178  C         45.7420   55.1780   51.4570 C.2   210  LEU210      0.2287
    179  O         45.8810   55.4900   52.6390 O.2   210  LEU210     -0.2864
    180  CB        47.1200   56.4820   49.8280 C.3   210  LEU210      0.0297
    181  CG        48.5320   56.8980   49.3790 C.3   210  LEU210      0.0022
    182  CD1       48.4290   58.2000   48.6040 C.3   210  LEU210      0.0001
    183  CD2       49.4730   57.0690   50.5790 C.3   210  LEU210      0.0001
    184  N         46.0770   52.4950   54.0880 N.3   213  PHE213     -0.1241
    185  CA        47.0020   52.8280   55.1790 C.3   213  PHE213      0.1605
    186  C         46.4280   53.8120   56.1940 C.2   213  PHE213      0.2264
    187  O         46.8720   53.8540   57.3410 O.2   213  PHE213     -0.2867
    188  CB        48.3190   53.4300   54.6590 C.3   213  PHE213      0.0534
    189  CG        49.0010   52.6210   53.5830 C.ar  213  PHE213     -0.0203
    190  CD1       48.9200   51.2380   53.5600 C.ar  213  PHE213     -0.0042
    191  CD2       49.7380   53.2610   52.5900 C.ar  213  PHE213     -0.0042
    192  CE1       49.5580   50.5100   52.5610 C.ar  213  PHE213     -0.0003
    193  CE2       50.3780   52.5390   51.5900 C.ar  213  PHE213     -0.0003
    194  CZ        50.2870   51.1630   51.5750 C.ar  213  PHE213     -0.0000
@<TRIPOS>BOND
     1   156   155    2
     2   155   154    1
     3   154   153    1
     4   154   157    1
     5    83    84    1
     6    66    67    1
     7    61    60    2
     8    64    62    1
     9    60    59    1
    10   158   157    1
    11   157   159    1
    12    84    85    1
    13    84    87    1
    14    69    68    2
    15    86    85    2
    16    67    68    1
    17    67    70    1
    18   145   144    2
    19    62    59    1
    20    62    63    1
    21   137   136    2
    22    68    72   am
    23    59    58    1
    24   144   143    1
    25   141   139    1
    26    71    70    1
    27    74    75    2
    28    74    73    1
    29    65    63    1
    30    87    88    1
    31    58    52   am
    32    72    73    1
    33   136   135    1
    34   136   142   am
    35    44    45    2
    36    44    43    1
    37    50    51    1
    38   135   134    1
    39   135   138    1
    40    53    52    2
    41   101    99    1
    42    52    51    1
    43    73    76    1
    44    28    29    1
    45    48    47    2
    46   139   138    1
    47    80    78   ar
    48    80    82   ar
    49   143   142    1
    50   143   146    1
    51    88    89    1
    52    78    77   ar
    53   150   148   ar
    54   150   152   ar
    55   148   147   ar
    56    51    54    1
    57    82    81   ar
    58   138   140    1
    59    42    43    1
    60    42    30   am
    61   165   164    1
    62    29    30    1
    63    29    32    1
    64    43    46    1
    65    46    47    1
    66    30    31    2
    67   160   161    1
    68    77    76    1
    69    77    79   ar
    70    47    49   am
    71    99    98    1
    72   152   151   ar
    73   147   146    1
    74   147   149   ar
    75    81    79   ar
    76    89    90    1
    77   164   161    1
    78    95    94    1
    79    95    98    1
    80    95    96    1
    81    90    91    2
    82    54    55    1
    83   151   149   ar
    84   161   162    1
    85    98   100    1
    86    32    33    1
    87    57    55    1
    88    91    93    1
    89    91    92    1
    90    55    56    1
    91    96    97    2
    92    33    34   ar
    93    33    35   ar
    94    34    36   ar
    95   162   163    2
    96   130   129    2
    97   174   172   ar
    98   174   175   ar
    99    35    38   ar
   100    35    37   ar
   101   172   171   ar
   102    36    37   ar
   103   118   117    2
   104   129   128    1
   105    38    40   ar
   106    37    39   ar
   107   175   173   ar
   108    26    25    2
   109   126   123    1
   110    40    41   ar
   111    22    21    2
   112    39    41   ar
   113   171   173   ar
   114   171   170    1
   115   102   103    1
   116   117   116    1
   117   128   131    1
   118   128   127    1
   119   166   167    1
   120   109   107    1
   121    23    24    1
   122    23    20    1
   123    25    24    1
   124    25    27   am
   125   131   132    1
   126   131   133    1
   127   103   104    1
   128   103   106    1
   129   170   167    1
   130    21    20    1
   131   123   124    1
   132   123   122    1
   133   115   116    1
   134   182   181    1
   135   124   125    2
   136   119   116    1
   137   119   120    1
   138   119   121    1
   139   110   104   am
   140   110   111    1
   141   114   111    1
   142   104   105    2
   143   167   168    1
   144    20    19    1
   145   107   106    1
   146   107   108    1
   147   111   112    1
   148   181   180    1
   149   181   183    1
   150   176   168   am
   151   176   177    1
   152     8     6    1
   153   180   177    1
   154   168   169    2
   155     7     5    1
   156    18    15    1
   157    15    14    1
   158    15    16    1
   159    17    16    2
   160   177   178    1
   161     6     5    1
   162   112   113    2
   163    14    11   am
   164    12    11    2
   165    13    10    1
   166     5     2    1
   167    11    10    1
   168     4     3    2
   169   178   179    2
   170   194   193   ar
   171   194   192   ar
   172   193   191   ar
   173     2     3    1
   174     2     1    1
   175    10     9    1
   176   192   190   ar
   177   191   189   ar
   178   190   189   ar
   179   189   188    1
   180   184   185    1
   181   188   185    1
   182   185   186    1
   183   186   187    2
