@<TRIPOS>MOLECULE
tmp/1xvpD00.pdb
 224 215 0 0 0
SMALL
GASTEIGER

@<TRIPOS>ATOM
      1  N         19.3090   49.2410   19.8510 N.3    30  PHE30      -0.1241
      2  CA        18.9810   49.2930   21.2670 C.3    30  PHE30       0.1605
      3  C         17.4680   49.2150   21.4450 C.2    30  PHE30       0.2264
      4  O         16.9630   49.0480   22.5550 O.2    30  PHE30      -0.2867
      5  CB        19.5100   50.5730   21.8960 C.3    30  PHE30       0.0534
      6  CG        20.9950   50.5880   22.0520 C.ar   30  PHE30      -0.0203
      7  CD1       21.7020   49.3960   22.1370 C.ar   30  PHE30      -0.0042
      8  CD2       21.6880   51.7860   22.1330 C.ar   30  PHE30      -0.0042
      9  CE1       23.0710   49.3960   22.2970 C.ar   30  PHE30      -0.0003
     10  CE2       23.0600   51.7910   22.2940 C.ar   30  PHE30      -0.0003
     11  CZ        23.7520   50.5930   22.3760 C.ar   30  PHE30      -0.0000
     12  N         13.6330   50.7130   33.0780 N.3    55  LEU55      -0.1245
     13  CA        14.7250   51.5200   32.5340 C.3    55  LEU55       0.1561
     14  C         16.0390   50.8340   32.8840 C.2    55  LEU55       0.2260
     15  O         16.8270   50.4850   32.0020 O.2    55  LEU55      -0.2867
     16  CB        14.7080   52.9140   33.1490 C.3    55  LEU55       0.0270
     17  CG        15.8270   53.8220   32.6500 C.3    55  LEU55       0.0019
     18  CD1       15.7970   53.8360   31.1390 C.3    55  LEU55       0.0001
     19  CD2       15.6600   55.2270   33.2070 C.3    55  LEU55       0.0001
     20  N         18.9680   49.3930   30.5960 N.3    59  PHE59      -0.1241
     21  CA        20.3550   49.8210   30.6670 C.3    59  PHE59       0.1605
     22  C         21.2840   48.6120   30.7510 C.2    59  PHE59       0.2264
     23  O         22.2750   48.5300   30.0360 O.2    59  PHE59      -0.2867
     24  CB        20.5650   50.6920   31.8980 C.3    59  PHE59       0.0534
     25  CG        22.0050   51.0300   32.1550 C.ar   59  PHE59      -0.0203
     26  CD1       22.5130   51.0300   33.4430 C.ar   59  PHE59      -0.0042
     27  CD2       22.8600   51.3400   31.1070 C.ar   59  PHE59      -0.0042
     28  CE1       23.8470   51.3290   33.6810 C.ar   59  PHE59      -0.0003
     29  CE2       24.1880   51.6400   31.3450 C.ar   59  PHE59      -0.0003
     30  CZ        24.6780   51.6320   32.6360 C.ar   59  PHE59      -0.0000
     31  N         21.3850   46.5180   27.1400 N.3    62  ILE62      -0.1231
     32  CA        22.1250   47.1690   26.0410 C.3    62  ILE62       0.1692
     33  C         23.5860   47.3630   26.4710 C.2    62  ILE62       0.2592
     34  O         24.5110   47.3910   25.6580 O.2    62  ILE62      -0.2718
     35  CB        21.5350   48.5630   25.7050 C.3    62  ILE62       0.0266
     36  CG1       21.3090   49.3540   26.9950 C.3    62  ILE62       0.0019
     37  CG2       20.2400   48.4070   24.9280 C.3    62  ILE62       0.0020
     38  CD1       21.3380   50.8400   26.8230 C.3    62  ILE62       0.0001
     39  N         23.7630   47.5140   27.7730 N.am   63  ASN63      -0.1974
     40  CA        25.0590   47.6830   28.3780 C.3    63  ASN63       0.1688
     41  C         25.8220   46.3930   28.1130 C.2    63  ASN63       0.2292
     42  O         26.9120   46.4110   27.5580 O.2    63  ASN63      -0.2864
     43  CB        24.8540   47.9120   29.8650 C.3    63  ASN63       0.1181
     44  CG        26.1300   48.1250   30.5920 C.2    63  ASN63       0.2629
     45  OD1       27.0260   47.2890   30.5370 O.2    63  ASN63      -0.2716
     46  ND2       26.2310   49.2480   31.2920 N.am   63  ASN63      -0.0877
     47  N         26.5390   45.9680   24.2450 N.3    66  MET66      -0.1230
     48  CA        27.6570   46.6540   23.6500 C.3    66  MET66       0.1702
     49  C         28.9250   45.8760   23.8740 C.2    66  MET66       0.2592
     50  O         29.6620   45.6190   22.9260 O.2    66  MET66      -0.2718
     51  CB        27.7930   48.0610   24.2060 C.3    66  MET66       0.0401
     52  CG        27.5370   49.0940   23.1350 C.3    66  MET66       0.0596
     53  SD        27.8510   50.7670   23.6460 S.3    66  MET66      -0.1393
     54  CE        26.5870   50.9280   24.8800 C.3    66  MET66       0.0692
     55  N         29.1740   45.4800   25.1200 N.am   67  VAL67      -0.1980
     56  CA        30.3780   44.7150   25.4390 C.3    67  VAL67       0.1595
     57  C         30.4490   43.3850   24.6820 C.2    67  VAL67       0.2287
     58  O         31.5380   42.8530   24.4750 O.2    67  VAL67      -0.2864
     59  CB        30.4920   44.4380   26.9530 C.3    67  VAL67       0.0276
     60  CG1       31.7730   43.6670   27.2430 C.3    67  VAL67       0.0022
     61  CG2       30.4750   45.7480   27.7210 C.3    67  VAL67       0.0022
     62  N         34.9740   48.4930   28.6970 N.3    97  VAL97      -0.1245
     63  CA        34.1200   49.6200   29.0610 C.3    97  VAL97       0.1561
     64  C         34.5600   50.9040   28.3770 C.2    97  VAL97       0.2260
     65  O         33.7270   51.6530   27.8570 O.2    97  VAL97      -0.2867
     66  CB        34.1300   49.8470   30.5870 C.3    97  VAL97       0.0252
     67  CG1       33.4650   51.1820   30.9360 C.3    97  VAL97       0.0019
     68  CG2       33.4280   48.6870   31.2800 C.3    97  VAL97       0.0019
     69  N         33.6130   50.9450   24.8720 N.3   100  CYS100     -0.1221
     70  CA        32.1820   51.1430   24.7170 C.3   100  CYS100      0.1808
     71  C         31.8620   52.6250   24.7130 C.2   100  CYS100      0.2601
     72  O         30.9780   53.0680   23.9850 O.2   100  CYS100     -0.2717
     73  CB        31.4340   50.4530   25.8400 C.3   100  CYS100      0.0970
     74  SG        31.3200   48.7070   25.5700 S.3   100  CYS100     -0.0800
     75  N         32.5830   53.3910   25.5230 N.am  101  HIS101     -0.1975
     76  CA        32.3740   54.8320   25.5740 C.3   101  HIS101      0.1656
     77  C         32.9080   55.5740   24.3560 C.2   101  HIS101      0.2291
     78  O         32.3290   56.5680   23.9210 O.2   101  HIS101     -0.2864
     79  CB        32.9960   55.4030   26.8350 C.3   101  HIS101      0.0771
     80  CG        32.1030   55.3010   28.0220 C.ar  101  HIS101      0.0820
     81  ND1       30.8930   55.9550   28.0910 N.ar  101  HIS101     -0.2267
     82  CD2       32.2140   54.5900   29.1670 C.ar  101  HIS101      0.1154
     83  CE1       30.2950   55.6510   29.2280 C.ar  101  HIS101      0.1986
     84  NE2       31.0760   54.8240   29.8990 N.ar  101  HIS101     -0.2212
     85  N         30.6380   54.7990   21.5630 N.3   104  LEU104     -0.1245
     86  CA        29.3520   55.3800   21.8910 C.3   104  LEU104      0.1561
     87  C         29.3550   56.9060   21.7890 C.2   104  LEU104      0.2260
     88  O         28.3020   57.5310   21.8040 O.2   104  LEU104     -0.2867
     89  CB        28.9740   54.9470   23.3040 C.3   104  LEU104      0.0270
     90  CG        27.8010   55.6130   24.0080 C.3   104  LEU104      0.0019
     91  CD1       26.5240   55.4240   23.2080 C.3   104  LEU104      0.0001
     92  CD2       27.6710   55.0090   25.3910 C.3   104  LEU104      0.0001
     93  N         22.4780   61.1450   23.9000 N.3   115  PHE115     -0.1241
     94  CA        22.9550   60.1640   22.9380 C.3   115  PHE115      0.1605
     95  C         21.7490   59.8100   22.1040 C.2   115  PHE115      0.2264
     96  O         20.7290   59.3800   22.6350 O.2   115  PHE115     -0.2867
     97  CB        23.4730   58.8960   23.6260 C.3   115  PHE115      0.0534
     98  CG        24.6880   59.1210   24.4870 C.ar  115  PHE115     -0.0203
     99  CD1       24.5850   59.7720   25.7130 C.ar  115  PHE115     -0.0042
    100  CD2       25.9330   58.6920   24.0690 C.ar  115  PHE115     -0.0042
    101  CE1       25.6960   59.9920   26.5050 C.ar  115  PHE115     -0.0003
    102  CE2       27.0440   58.9110   24.8580 C.ar  115  PHE115     -0.0003
    103  CZ        26.9210   59.5630   26.0800 C.ar  115  PHE115     -0.0000
    104  N         20.5280   57.3110   19.6890 N.3   117  CYS117     -0.1235
    105  CA        20.7530   55.9640   19.1540 C.3   117  CYS117      0.1677
    106  C         19.5630   55.4870   18.3270 C.2   117  CYS117      0.2270
    107  O         18.8260   54.5790   18.7280 O.2   117  CYS117     -0.2867
    108  CB        21.0000   54.9870   20.3100 C.3   117  CYS117      0.0956
    109  SG        22.2160   55.5610   21.5600 S.3   117  CYS117     -0.0801
    110  N         18.8120   59.1720   24.8920 N.3   122  TYR122     -0.1227
    111  CA        19.2040   59.0520   26.2930 C.3   122  TYR122      0.1736
    112  C         19.7750   60.3640   26.8320 C.2   122  TYR122      0.2596
    113  O         20.5650   61.0200   26.1530 O.2   122  TYR122     -0.2718
    114  CB        20.2430   57.9430   26.4370 C.3   122  TYR122      0.0548
    115  CG        19.8230   56.5910   25.8810 C.ar  122  TYR122     -0.0200
    116  CD1       19.9260   56.3020   24.5240 C.ar  122  TYR122     -0.0009
    117  CD2       19.3670   55.5840   26.7260 C.ar  122  TYR122     -0.0009
    118  CE1       19.5930   55.0420   24.0300 C.ar  122  TYR122      0.0417
    119  CE2       19.0340   54.3280   26.2410 C.ar  122  TYR122      0.0417
    120  CZ        19.1520   54.0620   24.8960 C.ar  122  TYR122      0.1957
    121  OH        18.8430   52.8030   24.4310 O.3   122  TYR122     -0.2866
    122  N         19.3880   60.7310   28.0550 N.am  123  THR123     -0.1939
    123  CA        19.8450   61.9800   28.6800 C.3   123  THR123      0.2028
    124  C         20.4580   61.7900   30.0640 C.2   123  THR123      0.2642
    125  O         20.2990   60.7470   30.6820 O.2   123  THR123     -0.2714
    126  CB        18.6880   62.9560   28.8720 C.3   123  THR123      0.1808
    127  OG1       17.8440   62.4690   29.9180 O.3   123  THR123     -0.2208
    128  CG2       17.8720   63.0780   27.6030 C.3   123  THR123      0.0379
    129  N         21.1240   62.8250   30.5660 N.am  124  ILE124     -0.1977
    130  CA        21.7460   62.7610   31.8910 C.3   124  ILE124      0.1596
    131  C         20.7100   62.5510   32.9990 C.2   124  ILE124      0.2287
    132  O         21.0330   62.1400   34.1200 O.2   124  ILE124     -0.2864
    133  CB        22.5790   64.0540   32.1930 C.3   124  ILE124      0.0276
    134  CG1       23.2850   63.9150   33.5480 C.3   124  ILE124      0.0022
    135  CG2       21.6850   65.2850   32.1880 C.3   124  ILE124      0.0022
    136  CD1       24.3190   64.9900   33.8220 C.3   124  ILE124      0.0001
    137  N         18.3320   60.3980   32.7600 N.3   126  ASP126     -0.1225
    138  CA        18.0910   58.9610   32.8160 C.3   126  ASP126      0.1805
    139  C         19.1750   58.2430   33.6150 C.2   126  ASP126      0.2598
    140  O         18.9680   57.1440   34.1260 O.2   126  ASP126     -0.2718
    141  CB        18.0390   58.3650   31.4100 C.3   126  ASP126      0.1424
    142  CG        16.9130   58.9350   30.5760 C.2   126  ASP126      0.3668
    143  OD1       15.7550   58.9160   31.0460 O.co2 126  ASP126     -0.2456
    144  OD2       17.1840   59.3940   29.4440 O.co2 126  ASP126     -0.2456
    145  N         20.3460   58.8580   33.7010 N.am  127  GLY127     -0.1957
    146  CA        21.4160   58.2470   34.4510 C.3   127  GLY127      0.1869
    147  C         21.0230   58.3010   35.9020 C.2   127  GLY127      0.2309
    148  O         21.1810   57.3270   36.6300 O.2   127  GLY127     -0.2863
    149  N         18.2110   55.5620   36.7770 N.3   130  VAL130     -0.1245
    150  CA        18.8040   54.2440   36.9130 C.3   130  VAL130      0.1561
    151  C         19.4210   54.1370   38.3000 C.2   130  VAL130      0.2260
    152  O         19.2170   53.1430   38.9970 O.2   130  VAL130     -0.2867
    153  CB        19.8880   54.0270   35.8650 C.3   130  VAL130      0.0252
    154  CG1       20.5240   52.6760   36.0570 C.3   130  VAL130      0.0019
    155  CG2       19.2840   54.1360   34.4820 C.3   130  VAL130      0.0019
    156  N         22.7370   56.3450   39.1300 N.3   132  PHE132     -0.1241
    157  CA        24.0790   56.9250   39.2140 C.3   132  PHE132      0.1605
    158  C         24.1400   58.2320   39.9750 C.2   132  PHE132      0.2264
    159  O         23.1420   58.9340   40.1090 O.2   132  PHE132     -0.2867
    160  CB        24.6690   57.1500   37.8310 C.3   132  PHE132      0.0534
    161  CG        24.8850   55.8910   37.0570 C.ar  132  PHE132     -0.0203
    162  CD1       23.8810   55.3650   36.2640 C.ar  132  PHE132     -0.0042
    163  CD2       26.1010   55.2390   37.1050 C.ar  132  PHE132     -0.0042
    164  CE1       24.0900   54.2160   35.5290 C.ar  132  PHE132     -0.0003
    165  CE2       26.3190   54.0880   36.3730 C.ar  132  PHE132     -0.0003
    166  CZ        25.3120   53.5750   35.5820 C.ar  132  PHE132     -0.0000
    167  N         29.6780   61.0910   38.9910 N.3   136  PHE136     -0.1227
    168  CA        29.9470   60.2450   37.8440 C.3   136  PHE136      0.1736
    169  C         29.2870   60.6960   36.5560 C.2   136  PHE136      0.2595
    170  O         29.8230   60.4580   35.4740 O.2   136  PHE136     -0.2718
    171  CB        29.5100   58.8210   38.1180 C.3   136  PHE136      0.0547
    172  CG        29.8660   57.8800   37.0240 C.ar  136  PHE136     -0.0202
    173  CD1       31.1910   57.5850   36.7610 C.ar  136  PHE136     -0.0042
    174  CD2       28.8870   57.2940   36.2520 C.ar  136  PHE136     -0.0042
    175  CE1       31.5360   56.7160   35.7500 C.ar  136  PHE136     -0.0003
    176  CE2       29.2220   56.4230   35.2360 C.ar  136  PHE136     -0.0003
    177  CZ        30.5500   56.1320   34.9840 C.ar  136  PHE136     -0.0000
    178  N         28.1150   61.3210   36.6770 N.am  137  LEU137     -0.1980
    179  CA        27.3480   61.8030   35.5230 C.3   137  LEU137      0.1596
    180  C         27.9320   63.0920   34.9560 C.2   137  LEU137      0.2287
    181  O         28.0780   63.2310   33.7390 O.2   137  LEU137     -0.2864
    182  CB        25.8890   62.0250   35.9230 C.3   137  LEU137      0.0297
    183  CG        25.1640   60.7900   36.4650 C.3   137  LEU137      0.0022
    184  CD1       23.7950   61.2010   36.9600 C.3   137  LEU137      0.0001
    185  CD2       25.0570   59.7260   35.3940 C.3   137  LEU137      0.0001
    186  N         31.3340   62.1230   33.5860 N.3   140  LEU140     -0.1231
    187  CA        31.1380   61.3580   32.3670 C.3   140  LEU140      0.1693
    188  C         30.6200   62.1460   31.1700 C.2   140  LEU140      0.2592
    189  O         31.1460   62.0270   30.0630 O.2   140  LEU140     -0.2718
    190  CB        30.1980   60.2020   32.6470 C.3   140  LEU140      0.0284
    191  CG        29.6780   59.5110   31.3940 C.3   140  LEU140      0.0019
    192  CD1       30.8150   59.1040   30.4800 C.3   140  LEU140      0.0001
    193  CD2       28.8910   58.3080   31.8250 C.3   140  LEU140      0.0001
    194  N         29.5760   62.9360   31.3750 N.am  141  PHE141     -0.1976
    195  CA        29.0380   63.7200   30.2770 C.3   141  PHE141      0.1639
    196  C         29.9870   64.8110   29.8040 C.2   141  PHE141      0.2290
    197  O         29.9820   65.1730   28.6280 O.2   141  PHE141     -0.2864
    198  CB        27.6890   64.3150   30.6570 C.3   141  PHE141      0.0560
    199  CG        26.5360   63.5200   30.1460 C.ar  141  PHE141     -0.0200
    200  CD1       26.2430   62.2780   30.6830 C.ar  141  PHE141     -0.0042
    201  CD2       25.7870   63.9790   29.0730 C.ar  141  PHE141     -0.0042
    202  CE1       25.2290   61.5090   30.1560 C.ar  141  PHE141     -0.0003
    203  CE2       24.7710   63.2150   28.5390 C.ar  141  PHE141     -0.0003
    204  CZ        24.4910   61.9790   29.0780 C.ar  141  PHE141     -0.0000
    205  N         33.1270   53.8660   37.0370 N.3   224  TYR224     -0.1241
    206  CA        32.0230   53.0770   36.4850 C.3   224  TYR224      0.1605
    207  C         31.8710   51.7540   37.2190 C.2   224  TYR224      0.2264
    208  O         30.7840   51.4120   37.6770 O.2   224  TYR224     -0.2867
    209  CB        32.2350   52.7810   34.9920 C.3   224  TYR224      0.0534
    210  CG        31.1860   51.8330   34.4260 C.ar  224  TYR224     -0.0201
    211  CD1       29.8750   52.2530   34.2130 C.ar  224  TYR224     -0.0009
    212  CD2       31.4910   50.5000   34.1800 C.ar  224  TYR224     -0.0009
    213  CE1       28.9080   51.3720   33.7810 C.ar  224  TYR224      0.0417
    214  CE2       30.5250   49.6120   33.7490 C.ar  224  TYR224      0.0417
    215  CZ        29.2410   50.0550   33.5550 C.ar  224  TYR224      0.1957
    216  OH        28.2880   49.1610   33.1500 O.3   224  TYR224     -0.2866
    217  N         29.3140   42.1370   32.5370 N.3   241  LEU241     -0.1245
    218  CA        29.9200   43.4170   32.8940 C.3   241  LEU241      0.1561
    219  C         30.5550   43.3020   34.2690 C.2   241  LEU241      0.2260
    220  O         31.5840   43.9090   34.5570 O.2   241  LEU241     -0.2867
    221  CB        28.8600   44.5100   32.9150 C.3   241  LEU241      0.0270
    222  CG        28.7670   45.3360   31.6370 C.3   241  LEU241      0.0019
    223  CD1       30.0730   46.0970   31.4560 C.3   241  LEU241      0.0001
    224  CD2       28.4790   44.4370   30.4460 C.3   241  LEU241      0.0001
@<TRIPOS>BOND
     1   106   107    2
     2   106   105    1
     3   105   104    1
     4   105   108    1
     5     1     2    1
     6   108   109    1
     7     2     3    1
     8     2     5    1
     9     3     4    2
    10    85    86    1
    11    87    88    2
    12    87    86    1
    13    86    89    1
    14     5     6    1
    15     6     8   ar
    16     6     7   ar
    17    95    96    2
    18    95    94    1
    19     8    10   ar
    20     7     9   ar
    21    10    11   ar
    22     9    11   ar
    23    50    49    2
    24    94    97    1
    25    94    93    1
    26    52    53    1
    27    52    51    1
    28    91    90    1
    29    89    90    1
    30    97    98    1
    31    53    54    1
    32    48    49    1
    33    48    51    1
    34    48    47    1
    35    49    55   am
    36    78    77    2
    37    72    71    2
    38    90    92    1
    39   118   116   ar
    40   118   120   ar
    41   100    98   ar
    42   100   102   ar
    43    77    76    1
    44   121   120    1
    45    58    57    2
    46    98    99   ar
    47   116   115   ar
    48    57    56    1
    49    71    70    1
    50    71    75   am
    51    70    69    1
    52    70    73    1
    53   102   103   ar
    54   110   111    1
    55   120   119   ar
    56    37    35    1
    57    55    56    1
    58    56    59    1
    59    75    76    1
    60    74    73    1
    61    76    79    1
    62    34    33    2
    63    35    32    1
    64    35    36    1
    65    99   101   ar
    66   115   114    1
    67   115   117   ar
    68    32    33    1
    69    32    31    1
    70   103   101   ar
    71   113   112    2
    72   119   117   ar
    73   111   114    1
    74   111   112    1
    75    33    39   am
    76    38    36    1
    77   112   122   am
    78    79    80    1
    79    59    60    1
    80    59    61    1
    81    42    41    2
    82   128   126    1
    83    39    40    1
    84    65    64    2
    85    80    81   ar
    86    80    82   ar
    87   122   123    1
    88    81    83   ar
    89    41    40    1
    90    64    63    1
    91    40    43    1
    92   203   201   ar
    93   203   204   ar
    94   197   196    2
    95   123   126    1
    96   123   124    1
    97    62    63    1
    98   126   127    1
    99    63    66    1
   100   201   199   ar
   101   204   202   ar
   102    82    84   ar
   103    83    84   ar
   104   144   142   ar
   105   196   195    1
   106    43    44    1
   107    23    22    2
   108   189   188    2
   109   124   129   am
   110   124   125    2
   111   199   198    1
   112   199   200   ar
   113   202   200   ar
   114   195   198    1
   115   195   194    1
   116   224   222    1
   117   192   191    1
   118    45    44    2
   119   129   130    1
   120   142   143   ar
   121   142   141    1
   122    66    67    1
   123    66    68    1
   124    44    46   am
   125    20    21    1
   126    21    22    1
   127    21    24    1
   128    27    29   ar
   129    27    25   ar
   130    18    17    1
   131   188   194   am
   132   188   187    1
   133    29    30   ar
   134   191   193    1
   135   191   190    1
   136   141   138    1
   137   223   222    1
   138   222   221    1
   139   130   133    1
   140   130   131    1
   141    24    25    1
   142    15    14    2
   143    25    26   ar
   144   135   133    1
   145   133   134    1
   146   187   190    1
   147   187   186    1
   148    13    14    1
   149    13    12    1
   150    13    16    1
   151   217   218    1
   152    30    28   ar
   153    17    16    1
   154    17    19    1
   155   137   138    1
   156   138   139    1
   157   218   221    1
   158   218   219    1
   159   131   132    2
   160   216   215    1
   161    26    28   ar
   162   134   136    1
   163   215   214   ar
   164   215   213   ar
   165   139   145   am
   166   139   140    2
   167   145   146    1
   168   181   180    2
   169   214   212   ar
   170   213   211   ar
   171   212   210   ar
   172   211   210   ar
   173   219   220    2
   174   210   209    1
   175   146   147    1
   176   155   153    1
   177   180   179    1
   178   177   176   ar
   179   177   175   ar
   180   209   206    1
   181   176   174   ar
   182   185   183    1
   183   170   169    2
   184   179   182    1
   185   179   178    1
   186   164   166   ar
   187   164   162   ar
   188   166   165   ar
   189   175   173   ar
   190   153   154    1
   191   153   150    1
   192   147   148    2
   193   182   183    1
   194   174   172   ar
   195   162   161   ar
   196   165   163   ar
   197   183   184    1
   198   206   205    1
   199   206   207    1
   200   169   178   am
   201   169   168    1
   202   173   172   ar
   203   149   150    1
   204   150   151    1
   205   172   171    1
   206   161   163   ar
   207   161   160    1
   208   207   208    2
   209   160   157    1
   210   168   171    1
   211   168   167    1
   212   151   152    2
   213   156   157    1
   214   157   158    1
   215   158   159    2
