@<TRIPOS>MOLECULE
tmp/1xvyA00.pdb
 83 81 0 0 0
SMALL
GASTEIGER

@<TRIPOS>ATOM
      1  N         14.6340    2.6400   -5.8210 N.3     7  ALA7       -0.1231
      2  CA        13.7580    2.4460   -6.9660 C.3     7  ALA7        0.1694
      3  C         12.3060    2.8000   -6.6560 C.2     7  ALA7        0.2592
      4  O         11.4580    2.7030   -7.5350 O.2     7  ALA7       -0.2718
      5  CB        13.8670    1.0290   -7.5140 C.3     7  ALA7        0.0304
      6  N         12.0180    3.2130   -5.4220 N.am    8  GLN8       -0.1966
      7  CA        10.6880    3.7350   -5.1120 C.3     8  GLN8        0.1733
      8  C         10.5140    5.1540   -5.6370 C.2     8  GLN8        0.2616
      9  O         11.4700    5.8080   -6.0460 O.2     8  GLN8       -0.2715
     10  CB        10.3760    3.6790   -3.6060 C.3     8  GLN8        0.0408
     11  CG         9.2610    2.6650   -3.2270 C.3     8  GLN8        0.0908
     12  CD         7.8640    3.0230   -3.7800 C.2     8  GLN8        0.2608
     13  OE1        7.6560    4.1040   -4.3230 O.2     8  GLN8       -0.2717
     14  NE2        6.9100    2.0880   -3.6540 N.am    8  GLN8       -0.0878
     15  N          9.2740    5.6170   -5.6340 N.am    9  HIS9       -0.1973
     16  CA         8.9530    6.9540   -6.1030 C.3     9  HIS9        0.1656
     17  C          9.6700    7.9910   -5.2400 C.2     9  HIS9        0.2291
     18  O          9.6760    7.8840   -4.0090 O.2     9  HIS9       -0.2864
     19  CB         7.4400    7.1880   -5.9990 C.3     9  HIS9        0.0771
     20  CG         6.6290    6.4090   -6.9870 C.ar    9  HIS9        0.0820
     21  ND1        6.6950    6.6370   -8.3440 N.ar    9  HIS9       -0.2267
     22  CD2        5.7270    5.4090   -6.8140 C.ar    9  HIS9        0.1154
     23  CE1        5.8610    5.8180   -8.9650 C.ar    9  HIS9        0.1986
     24  NE2        5.2630    5.0610   -8.0610 N.ar    9  HIS9       -0.2212
     25  N          9.9600   -0.6430   -5.9850 N.3    57  GLU57      -0.1245
     26  CA         8.5110   -0.5690   -6.1540 C.3    57  GLU57       0.1567
     27  C          7.8550   -1.9580   -6.1200 C.2    57  GLU57       0.2260
     28  O          6.7370   -2.1020   -5.6270 O.2    57  GLU57      -0.2867
     29  CB         8.1580    0.1430   -7.4570 C.3    57  GLU57       0.0388
     30  CG         8.4650    1.6130   -7.4140 C.3    57  GLU57       0.1160
     31  CD         7.8560    2.3830   -8.5620 C.2    57  GLU57       0.3649
     32  OE1        8.6100    3.1780   -9.1680 O.co2  57  GLU57      -0.2457
     33  OE2        6.6430    2.1980   -8.8510 O.co2  57  GLU57      -0.2457
     34  N          6.9000   -2.8760  -13.2260 N.3   139  ASP139     -0.1239
     35  CA         5.5300   -2.9920  -12.6900 C.3   139  ASP139      0.1674
     36  C          4.8010   -4.1620  -13.3690 C.2   139  ASP139      0.2266
     37  O          4.3720   -5.1260  -12.7160 O.2   139  ASP139     -0.2867
     38  CB         4.7410   -1.7060  -12.9630 C.3   139  ASP139      0.1410
     39  CG         5.1160   -0.5420  -12.0350 C.2   139  ASP139      0.3668
     40  OD1        5.7650   -0.7400  -10.9680 O.co2 139  ASP139     -0.2456
     41  OD2        4.7460    0.5980  -12.4140 O.co2 139  ASP139     -0.2456
     42  N          5.0780    3.2670  -20.5380 N.3   172  GLY172     -0.1210
     43  CA         4.7560    3.7670  -19.2210 C.3   172  GLY172      0.1956
     44  C          3.2930    3.5630  -18.8920 C.2   172  GLY172      0.2612
     45  O          2.4050    3.7500  -19.7380 O.2   172  GLY172     -0.2717
     46  N          3.0370    3.1770  -17.6480 N.am  173  ASN173     -0.1960
     47  CA         1.6600    3.0140  -17.1850 C.3   173  ASN173      0.1819
     48  C          0.8010    4.2750  -17.1510 C.2   173  ASN173      0.2622
     49  O         -0.4170    4.2110  -17.3510 O.2   173  ASN173     -0.2715
     50  CB         1.6520    2.3340  -15.8200 C.3   173  ASN173      0.1195
     51  CG         2.0300    0.8670  -15.8940 C.2   173  ASN173      0.2630
     52  OD1        1.6810    0.1600  -16.8380 O.2   173  ASN173     -0.2716
     53  ND2        2.7530    0.4000  -14.8850 N.am  173  ASN173     -0.0877
     54  N          1.4020    5.4290  -16.8650 N.am  174  SER174     -0.1950
     55  CA         0.5990    6.6590  -16.9410 C.3   174  SER174      0.1924
     56  C          0.1720    6.9040  -18.3920 C.2   174  SER174      0.2314
     57  O         -0.9340    7.3890  -18.6390 O.2   174  SER174     -0.2863
     58  CB         1.3490    7.8630  -16.3800 C.3   174  SER174      0.2116
     59  OG         2.5520    8.0500  -17.0700 O.3   174  SER174     -0.2180
     60  N         -2.8120    2.8640   -8.1920 N.3   193  TYR193     -0.1227
     61  CA        -2.5340    4.2330   -7.6720 C.3   193  TYR193      0.1736
     62  C         -2.5390    5.3110   -8.7720 C.2   193  TYR193      0.2595
     63  O         -2.7650    6.4890   -8.4640 O.2   193  TYR193     -0.2718
     64  CB        -1.2140    4.2710   -6.8710 C.3   193  TYR193      0.0548
     65  CG        -0.0610    3.6350   -7.5970 C.ar  193  TYR193     -0.0200
     66  CD1        0.6810    4.3540   -8.5630 C.ar  193  TYR193     -0.0009
     67  CD2        0.2850    2.2910   -7.3460 C.ar  193  TYR193     -0.0009
     68  CE1        1.7450    3.7420   -9.2500 C.ar  193  TYR193      0.0417
     69  CE2        1.3440    1.6780   -8.0240 C.ar  193  TYR193      0.0417
     70  CZ         2.0590    2.4060   -8.9820 C.ar  193  TYR193      0.1957
     71  OH         3.1000    1.7980   -9.6570 O.3   193  TYR193     -0.2866
     72  N         -2.3320    4.9040  -10.0370 N.am  194  TYR194     -0.1976
     73  CA        -2.2460    5.8660  -11.1580 C.3   194  TYR194      0.1639
     74  C         -3.4060    6.8910  -11.2330 C.2   194  TYR194      0.2290
     75  O         -3.1430    8.1020  -11.2170 O.2   194  TYR194     -0.2864
     76  CB        -2.0240    5.1390  -12.4860 C.3   194  TYR194      0.0560
     77  CG        -0.6290    4.5780  -12.6100 C.ar  194  TYR194     -0.0198
     78  CD1        0.4450    5.3970  -12.9870 C.ar  194  TYR194     -0.0009
     79  CD2       -0.3720    3.2340  -12.3350 C.ar  194  TYR194     -0.0009
     80  CE1        1.7570    4.8760  -13.0840 C.ar  194  TYR194      0.0417
     81  CE2        0.9070    2.7110  -12.4300 C.ar  194  TYR194      0.0417
     82  CZ         1.9710    3.5340  -12.8070 C.ar  194  TYR194      0.1957
     83  OH         3.2380    3.0050  -12.9220 O.3   194  TYR194     -0.2866
@<TRIPOS>BOND
     1    42    43    1
     2    45    44    2
     3    43    44    1
     4    44    46   am
     5    57    56    2
     6    56    55    1
     7    46    47    1
     8    49    48    2
     9    47    48    1
    10    47    50    1
    11    48    54   am
    12    59    58    1
    13    55    54    1
    14    55    58    1
    15    52    51    2
    16    51    50    1
    17    51    53   am
    18    36    37    2
    19    36    35    1
    20    34    35    1
    21    80    78   ar
    22    80    82   ar
    23    78    77   ar
    24    38    35    1
    25    38    39    1
    26    83    82    1
    27    82    81   ar
    28    77    76    1
    29    77    79   ar
    30    76    73    1
    31    81    79   ar
    32    41    39   ar
    33    39    40   ar
    34    74    75    2
    35    74    73    1
    36    73    72    1
    37    72    62   am
    38    71    70    1
    39    68    70   ar
    40    68    66   ar
    41    32    31   ar
    42    70    69   ar
    43    23    21   ar
    44    23    24   ar
    45    33    31   ar
    46    62    63    2
    47    62    61    1
    48    66    65   ar
    49    31    30    1
    50    21    20   ar
    51    60    61    1
    52    24    22   ar
    53    69    67   ar
    54    61    64    1
    55    65    67   ar
    56    65    64    1
    57     4     3    2
    58     5     2    1
    59    29    30    1
    60    29    26    1
    61    20    22   ar
    62    20    19    1
    63     2     3    1
    64     2     1    1
    65     3     6   am
    66    26    27    1
    67    26    25    1
    68    27    28    2
    69    16    19    1
    70    16    15    1
    71    16    17    1
    72     9     8    2
    73     8    15   am
    74     8     7    1
    75     6     7    1
    76    17    18    2
    77     7    10    1
    78    13    12    2
    79    12    14   am
    80    12    11    1
    81    10    11    1
