@<TRIPOS>MOLECULE
tmp/1xw4A00.pdb
 75 71 0 0 0
SMALL
GASTEIGER

@<TRIPOS>ATOM
      1  N         26.4070  -45.9360    8.6840 N.3    32  LYS32      -0.1245
      2  CA        27.7330  -45.4770    8.3140 C.3    32  LYS32       0.1561
      3  C         28.5490  -45.1980    9.5480 C.2    32  LYS32       0.2260
      4  O         29.7250  -45.4670    9.5260 O.2    32  LYS32      -0.2867
      5  CB        27.7100  -44.2340    7.4240 C.3    32  LYS32       0.0271
      6  CG        29.1320  -43.7620    7.0970 C.3    32  LYS32       0.0035
      7  CD        29.2580  -43.2550    5.7090 C.3    32  LYS32       0.0206
      8  CE        28.9550  -41.8060    5.6930 C.3    32  LYS32       0.1093
      9  NZ        29.8280  -41.0510    4.7520 N.3    32  LYS32      -0.1314
     10  N         29.6190  -48.6700   10.6970 N.3    35  SER35      -0.1202
     11  CA        30.6230  -49.1590    9.7700 C.3    35  SER35       0.2020
     12  C         32.0080  -48.6200   10.1450 C.2    35  SER35       0.2618
     13  O         33.0050  -49.3760   10.2370 O.2    35  SER35      -0.2717
     14  CB        30.2200  -48.7220    8.3550 C.3    35  SER35       0.2103
     15  OG        31.1140  -49.2650    7.3980 O.3    35  SER35      -0.2182
     16  N         32.0850  -47.3050   10.3760 N.am   36  LEU36      -0.1979
     17  CA        33.2840  -46.6720   10.9210 C.3    36  LEU36       0.1596
     18  C         33.7110  -47.2150   12.2580 C.2    36  LEU36       0.2287
     19  O         34.9270  -47.4140   12.4900 O.2    36  LEU36      -0.2864
     20  CB        33.1200  -45.1480   10.9970 C.3    36  LEU36       0.0297
     21  CG        33.2520  -44.5150    9.6050 C.3    36  LEU36       0.0022
     22  CD1       32.6170  -43.1400    9.5260 C.3    36  LEU36       0.0001
     23  CD2       34.7130  -44.4640    9.1740 C.3    36  LEU36       0.0001
     24  N         35.3820  -50.4720   11.4180 N.3    39  THR39      -0.1218
     25  CA        36.6720  -50.1800   10.7480 C.3    39  THR39       0.1862
     26  C         37.7520  -49.6340   11.6920 C.2    39  THR39       0.2287
     27  O         38.9190  -50.0170   11.5730 O.2    39  THR39      -0.2866
     28  CB        36.5090  -49.2570    9.5460 C.3    39  THR39       0.1770
     29  OG1       35.5000  -49.7910    8.6840 O.3    39  THR39      -0.2211
     30  CG2       37.8410  -49.0900    8.7700 C.3    39  THR39       0.0375
     31  N         43.1000  -47.2590    8.0380 N.3    46  SER46      -0.1202
     32  CA        42.3160  -47.0030    6.8200 C.3    46  SER46       0.2020
     33  C         41.2990  -45.8570    6.9600 C.2    46  SER46       0.2619
     34  O         40.5550  -45.5610    5.9970 O.2    46  SER46      -0.2717
     35  CB        41.5930  -48.2650    6.3790 C.3    46  SER46       0.2103
     36  OG        40.7060  -48.7020    7.4020 O.3    46  SER46      -0.2182
     37  N         41.2360  -45.2430    8.1500 N.am   47  VAL47      -0.1966
     38  CA        40.2730  -44.1490    8.4070 C.3    47  VAL47       0.1712
     39  C         40.9970  -42.8310    8.4920 C.2    47  VAL47       0.2458
     40  O         41.6980  -42.5850    9.4770 O.2    47  VAL47      -0.2730
     41  CB        39.4600  -44.3630    9.7030 C.3    47  VAL47       0.0289
     42  CG1       38.3620  -43.2690    9.8300 C.3    47  VAL47       0.0023
     43  CG2       38.8560  -45.7270    9.7460 C.3    47  VAL47       0.0023
     44  N         40.8210  -41.9670    7.4850 N.am   48  PRO48      -0.2727
     45  CA        41.5850  -40.7410    7.4170 C.3    48  PRO48       0.1402
     46  C         41.3430  -39.7650    8.5870 C.2    48  PRO48       0.2269
     47  O         40.2850  -39.7920    9.2450 O.2    48  PRO48      -0.2865
     48  CB        41.1420  -40.0960    6.0920 C.3    48  PRO48       0.0296
     49  CG        40.3990  -41.1200    5.3630 C.3    48  PRO48       0.0237
     50  CD        39.8650  -42.0750    6.3740 C.3    48  PRO48       0.0939
     51  N         33.5940  -34.1580    8.9520 N.3    69  GLY69      -0.1225
     52  CA        34.0390  -35.3730    9.6590 C.3    69  GLY69       0.1811
     53  C         33.0230  -35.9100   10.6770 C.2    69  GLY69       0.2280
     54  O         33.3990  -36.5180   11.6680 O.2    69  GLY69      -0.2866
     55  N         30.6600  -38.3750   10.7440 N.3    70  HIS70      -0.1226
     56  CA        30.6340  -39.8240   11.0200 C.3    70  HIS70       0.1752
     57  C         31.8200  -40.2990   11.8230 C.2    70  HIS70       0.2595
     58  O         31.6220  -41.0180   12.8230 O.2    70  HIS70      -0.2718
     59  CB        30.4250  -40.6930    9.7680 C.3    70  HIS70       0.0759
     60  CG        29.1020  -40.4420    9.1090 C.ar   70  HIS70       0.0818
     61  ND1       28.9040  -39.3950    8.2360 N.ar   70  HIS70      -0.2268
     62  CD2       27.8960  -41.0500    9.2550 C.ar   70  HIS70       0.1154
     63  CE1       27.6400  -39.3790    7.8460 C.ar   70  HIS70       0.1986
     64  NE2       27.0040  -40.3620    8.4660 N.ar   70  HIS70      -0.2212
     65  N         33.0400  -39.8750   11.4440 N.am   71  ARG71      -0.1980
     66  CA        34.2310  -40.3300   12.1920 C.3    71  ARG71       0.1597
     67  C         34.1740  -39.8260   13.6310 C.2    71  ARG71       0.2287
     68  O         34.5270  -40.5520   14.5630 O.2    71  ARG71      -0.2864
     69  CB        35.5350  -39.8870   11.5200 C.3    71  ARG71       0.0334
     70  CG        35.8370  -40.7090   10.2150 C.3    71  ARG71       0.0492
     71  CD        36.8640  -39.9790    9.3380 C.3    71  ARG71       0.2205
     72  NE        36.2070  -38.9280    8.5530 N.pl3  71  ARG71      -0.0865
     73  CZ        36.8300  -38.0570    7.7850 C.cat  71  ARG71       0.5346
     74  NH1       38.1500  -38.0780    7.7090 N.pl3  71  ARG71       0.1354
     75  NH2       36.1170  -37.1890    7.0670 N.pl3  71  ARG71       0.1354
@<TRIPOS>BOND
     1     9     8    1
     2    49    48    1
     3    49    50    1
     4     8     7    1
     5     7     6    1
     6    34    33    2
     7    48    45    1
     8    50    44    1
     9    35    32    1
    10    35    36    1
    11    32    33    1
    12    32    31    1
    13    33    37   am
    14    75    73    1
    15     6     5    1
    16    15    14    1
    17    45    44    1
    18    45    46    1
    19     5     2    1
    20    44    39   am
    21    74    73    1
    22    73    72    2
    23    63    61   ar
    24    63    64   ar
    25    37    38    1
    26    61    60   ar
    27     2     1    1
    28     2     3    1
    29    14    11    1
    30    38    39    1
    31    38    41    1
    32    64    62   ar
    33    39    40    2
    34    72    71    1
    35    46    47    2
    36    29    28    1
    37    30    28    1
    38    51    52    1
    39    60    62   ar
    40    60    59    1
    41    23    21    1
    42    71    70    1
    43    22    21    1
    44     4     3    2
    45    28    25    1
    46    21    20    1
    47    52    53    1
    48    41    43    1
    49    41    42    1
    50    59    56    1
    51    11    12    1
    52    11    10    1
    53    12    13    2
    54    12    16   am
    55    70    69    1
    56    16    17    1
    57    53    54    2
    58    55    56    1
    59    25    24    1
    60    25    26    1
    61    17    20    1
    62    17    18    1
    63    56    57    1
    64    65    57   am
    65    65    66    1
    66    69    66    1
    67    27    26    2
    68    57    58    2
    69    66    67    1
    70    18    19    2
    71    67    68    2
