@<TRIPOS>MOLECULE
tmp/1xwfD02.pdb
 157 148 0 0 0
SMALL
GASTEIGER

@<TRIPOS>ATOM
      1  N          9.0400   36.4120    1.6800 N.3    52  LEU52      -0.1231
      2  CA         9.9970   36.3800    2.7710 C.3    52  LEU52       0.1693
      3  C          9.1910   36.4170    4.0640 C.2    52  LEU52       0.2592
      4  O          8.2240   37.1640    4.1420 O.2    52  LEU52      -0.2718
      5  CB        10.9270   37.5890    2.6780 C.3    52  LEU52       0.0284
      6  CG        12.3950   37.3240    3.0580 C.3    52  LEU52       0.0019
      7  CD1       13.3040   38.4270    2.5130 C.3    52  LEU52       0.0001
      8  CD2       12.5110   37.2370    4.5860 C.3    52  LEU52       0.0001
      9  N          9.5930   35.6310    5.0700 N.am   53  HIS53      -0.1976
     10  CA         8.8600   35.5600    6.3340 C.3    53  HIS53       0.1656
     11  C          8.3260   36.9460    6.5930 C.2    53  HIS53       0.2291
     12  O          9.1040   37.8880    6.6990 O.2    53  HIS53      -0.2864
     13  CB         9.7950   35.1980    7.4870 C.3    53  HIS53       0.0771
     14  CG        10.7450   34.0810    7.1840 C.ar   53  HIS53       0.0820
     15  ND1       10.4800   32.7700    7.5160 N.ar   53  HIS53      -0.2267
     16  CD2       11.9680   34.0820    6.6010 C.ar   53  HIS53       0.1154
     17  CE1       11.4960   32.0110    7.1480 C.ar   53  HIS53       0.1986
     18  NE2       12.4150   32.7820    6.5900 N.ar   53  HIS53      -0.2212
     19  N          7.5200   39.4940    8.7210 N.3    55  THR55      -0.1218
     20  CA         7.7850   39.9740   10.0600 C.3    55  THR55       0.1862
     21  C          7.8540   41.4760   10.0960 C.2    55  THR55       0.2287
     22  O          7.6070   42.1330    9.1010 O.2    55  THR55      -0.2866
     23  CB         9.1040   39.4180   10.5690 C.3    55  THR55       0.1770
     24  OG1       10.1820   40.0490    9.8720 O.3    55  THR55      -0.2211
     25  CG2        9.1620   37.9200   10.3140 C.3    55  THR55       0.0375
     26  N         10.5650   43.2620   10.4720 N.3    57  GLU57      -0.1231
     27  CA        11.7180   43.7240    9.7180 C.3    57  GLU57       0.1699
     28  C         11.4580   43.6890    8.2210 C.2    57  GLU57       0.2592
     29  O         11.9580   44.5350    7.4790 O.2    57  GLU57      -0.2718
     30  CB        12.9410   42.8750   10.0620 C.3    57  GLU57       0.0402
     31  CG        13.4130   43.0610   11.4850 C.3    57  GLU57       0.1161
     32  CD        12.5310   42.3440   12.4880 C.2    57  GLU57       0.3649
     33  OE1       12.5430   42.7260   13.6760 O.co2  57  GLU57      -0.2457
     34  OE2       11.8290   41.3960   12.0920 O.co2  57  GLU57      -0.2457
     35  N         10.6760   42.7060    7.7820 N.am   58  THR58      -0.1953
     36  CA        10.3330   42.5640    6.3690 C.3    58  THR58       0.1897
     37  C          9.4190   43.7160    5.9950 C.2    58  THR58       0.2313
     38  O          9.4800   44.2350    4.8750 O.2    58  THR58      -0.2863
     39  CB         9.6000   41.2660    6.1030 C.3    58  THR58       0.1794
     40  OG1       10.4760   40.1730    6.3760 O.3    58  THR58      -0.2208
     41  CG2        9.1670   41.1940    4.6580 C.3    58  THR58       0.0378
     42  N          4.1290   37.4260   11.3170 N.3    83  GLN83      -0.1245
     43  CA         3.7890   38.2010   12.5000 C.3    83  GLN83       0.1566
     44  C          2.5560   39.0280   12.1320 C.2    83  GLN83       0.2260
     45  O          2.6610   40.1150   11.5430 O.2    83  GLN83      -0.2867
     46  CB         4.9510   39.1210   12.8980 C.3    83  GLN83       0.0367
     47  CG         6.1770   38.3740   13.4050 C.3    83  GLN83       0.0905
     48  CD         7.2900   39.2960   13.8910 C.2    83  GLN83       0.2608
     49  OE1        8.4760   38.9840   13.7520 O.2    83  GLN83      -0.2717
     50  NE2        6.9130   40.4320   14.4670 N.am   83  GLN83      -0.0878
     51  N         13.2280   34.1360   -0.7230 N.3   129  ASP129     -0.1239
     52  CA        13.9900   33.7090    0.4330 C.3   129  ASP129      0.1674
     53  C         13.8960   32.1960    0.5840 C.2   129  ASP129      0.2266
     54  O         13.8060   31.7100    1.7090 O.2   129  ASP129     -0.2867
     55  CB        13.4910   34.3760    1.7060 C.3   129  ASP129      0.1410
     56  CG        14.5980   34.6500    2.6950 C.2   129  ASP129      0.3668
     57  OD1       15.1330   35.7840    2.7070 O.co2 129  ASP129     -0.2456
     58  OD2       14.9270   33.7300    3.4730 O.co2 129  ASP129     -0.2456
     59  N         18.3260   34.7420   -1.4060 N.3   154  GLU154     -0.1231
     60  CA        19.1470   34.9900   -0.2270 C.3   154  GLU154      0.1699
     61  C         19.3840   33.7500    0.6260 C.2   154  GLU154      0.2592
     62  O         19.9790   33.8280    1.6930 O.2   154  GLU154     -0.2718
     63  CB        18.5120   36.0820    0.6180 C.3   154  GLU154      0.0402
     64  CG        19.3560   36.5070    1.7800 C.3   154  GLU154      0.1161
     65  CD        18.5120   36.8990    2.9740 C.2   154  GLU154      0.3649
     66  OE1       18.3030   36.0450    3.8650 O.co2 154  GLU154     -0.2457
     67  OE2       18.0570   38.0660    3.0260 O.co2 154  GLU154     -0.2457
     68  N         18.9000   32.6050    0.1580 N.am  155  THR155     -0.1953
     69  CA        19.0600   31.3660    0.8920 C.3   155  THR155      0.1897
     70  C         19.8210   30.3140    0.1230 C.2   155  THR155      0.2313
     71  O         19.6250   30.1360   -1.0760 O.2   155  THR155     -0.2863
     72  CB        17.7140   30.7800    1.2540 C.3   155  THR155      0.1794
     73  OG1       17.2130   30.0370    0.1360 O.3   155  THR155     -0.2208
     74  CG2       16.7490   31.8810    1.6000 C.3   155  THR155      0.0378
     75  N         23.3320   37.3530    8.4630 N.3   188  ASP188     -0.1239
     76  CA        22.2440   36.3890    8.4180 C.3   188  ASP188      0.1674
     77  C         22.6920   35.0400    8.9780 C.2   188  ASP188      0.2266
     78  O         21.8880   34.2960    9.5320 O.2   188  ASP188     -0.2867
     79  CB        21.7410   36.2320    6.9750 C.3   188  ASP188      0.1410
     80  CG        20.5450   35.2770    6.8550 C.2   188  ASP188      0.3668
     81  OD1       19.7700   35.3950    5.8720 O.co2 188  ASP188     -0.2456
     82  OD2       20.3740   34.4040    7.7300 O.co2 188  ASP188     -0.2456
     83  N         18.4200   24.5120    8.9200 N.3   299  HIS299     -0.1241
     84  CA        17.4330   25.1300    8.0260 C.3   299  HIS299      0.1621
     85  C         16.1260   24.3600    7.8390 C.2   299  HIS299      0.2264
     86  O         15.1420   24.8940    7.3290 O.2   299  HIS299     -0.2867
     87  CB        18.0510   25.4100    6.6510 C.3   299  HIS299      0.0745
     88  CG        17.3540   26.4930    5.8880 C.ar  299  HIS299      0.0817
     89  ND1       17.7200   26.8600    4.6100 N.ar  299  HIS299     -0.2268
     90  CD2       16.3090   27.2870    6.2240 C.ar  299  HIS299      0.1154
     91  CE1       16.9290   27.8330    4.1910 C.ar  299  HIS299      0.1986
     92  NE2       16.0640   28.1090    5.1510 N.ar  299  HIS299     -0.2212
     93  N         13.4710   25.2700   13.0040 N.3   342  LEU342     -0.1245
     94  CA        14.3590   26.3580   13.3800 C.3   342  LEU342      0.1561
     95  C         13.9350   26.9100   14.7300 C.2   342  LEU342      0.2260
     96  O         12.8820   27.5560   14.8490 O.2   342  LEU342     -0.2867
     97  CB        14.2810   27.4780   12.3400 C.3   342  LEU342      0.0270
     98  CG        15.3940   27.5030   11.2960 C.3   342  LEU342      0.0019
     99  CD1       15.5800   26.0860   10.7460 C.3   342  LEU342      0.0001
    100  CD2       15.0650   28.5230   10.1890 C.3   342  LEU342      0.0001
    101  N         15.3540   29.3940   16.6140 N.3   344  ASN344     -0.1225
    102  CA        15.3340   30.8400   16.7910 C.3   344  ASN344      0.1785
    103  C         14.0930   31.4180   16.1470 C.2   344  ASN344      0.2597
    104  O         13.5740   32.4420   16.5900 O.2   344  ASN344     -0.2718
    105  CB        16.5600   31.4810   16.1720 C.3   344  ASN344      0.1169
    106  CG        16.5400   31.4060   14.6860 C.2   344  ASN344      0.2627
    107  OD1       16.4110   30.3260   14.1210 O.2   344  ASN344     -0.2716
    108  ND2       16.6610   32.5500   14.0300 N.am  344  ASN344     -0.0877
    109  N         13.6420   30.7800   15.0690 N.am  345  LEU345     -0.1980
    110  CA        12.4390   31.2200   14.3620 C.3   345  LEU345      0.1596
    111  C         11.2050   30.6860   15.0690 C.2   345  LEU345      0.2287
    112  O         10.1720   31.3450   15.0930 O.2   345  LEU345     -0.2864
    113  CB        12.4520   30.7270   12.9110 C.3   345  LEU345      0.0297
    114  CG        13.1610   31.6040   11.8650 C.3   345  LEU345      0.0022
    115  CD1       13.0810   30.9110   10.5150 C.3   345  LEU345      0.0001
    116  CD2       12.5190   33.0000   11.7910 C.3   345  LEU345      0.0001
    117  N         11.9860   35.6310   18.3870 N.3   349  MET349     -0.1230
    118  CA        11.4940   36.5170   17.3470 C.3   349  MET349      0.1702
    119  C         12.4880   36.5520   16.1800 C.2   349  MET349      0.2593
    120  O         12.6340   37.5820   15.5260 O.2   349  MET349     -0.2718
    121  CB        11.2850   37.9300   17.9000 C.3   349  MET349      0.0401
    122  CG        10.1750   38.0580   18.9540 C.3   349  MET349      0.0596
    123  SD         8.5270   37.4740   18.4230 S.3   349  MET349     -0.1393
    124  CE         8.6450   35.7530   18.8250 C.3   349  MET349      0.0692
    125  N         13.1700   35.4300   15.9280 N.am  350  GLY350     -0.1942
    126  CA        14.1450   35.3610   14.8410 C.3   350  GLY350      0.2014
    127  C         15.3550   36.2290   15.1320 C.2   350  GLY350      0.2638
    128  O         15.6860   36.4380   16.2870 O.2   350  GLY350     -0.2714
    129  N         16.0080   36.7610   14.1080 N.am  351  HIS351     -0.1973
    130  CA        17.1730   37.6080   14.3340 C.3   351  HIS351      0.1656
    131  C         16.7120   39.0440   14.6200 C.2   351  HIS351      0.2291
    132  O         15.5690   39.3970   14.3670 O.2   351  HIS351     -0.2864
    133  CB        18.0690   37.6020   13.0960 C.3   351  HIS351      0.0771
    134  CG        18.5530   36.2430   12.6960 C.ar  351  HIS351      0.0820
    135  ND1       19.3420   36.0340   11.5840 N.ar  351  HIS351     -0.2267
    136  CD2       18.3830   35.0310   13.2700 C.ar  351  HIS351      0.1154
    137  CE1       19.6400   34.7480   11.4920 C.ar  351  HIS351      0.1986
    138  NE2       19.0700   34.1180   12.5030 N.ar  351  HIS351     -0.2212
    139  N         19.0180   42.0810   10.4230 N.3   356  MET356     -0.1245
    140  CA        18.1830   42.0520    9.2300 C.3   356  MET356      0.1570
    141  C         18.4510   43.2550    8.3240 C.2   356  MET356      0.2261
    142  O         18.5150   43.1220    7.0990 O.2   356  MET356     -0.2867
    143  CB        16.7170   42.0420    9.6350 C.3   356  MET356      0.0387
    144  CG        15.9800   40.7590    9.2870 C.3   356  MET356      0.0595
    145  SD        16.9030   39.2280    9.5150 S.3   356  MET356     -0.1393
    146  CE        17.0660   38.7050    7.8150 C.3   356  MET356      0.0692
    147  N         18.9900   42.7620    4.3120 N.3   360  PHE360     -0.1241
    148  CA        17.8750   43.2930    3.5350 C.3   360  PHE360      0.1605
    149  C         18.2750   44.4650    2.6580 C.2   360  PHE360      0.2264
    150  O         17.6380   44.7020    1.6500 O.2   360  PHE360     -0.2867
    151  CB        16.7500   43.7520    4.4600 C.3   360  PHE360      0.0534
    152  CG        15.8400   42.6520    4.8880 C.ar  360  PHE360     -0.0203
    153  CD1       16.0460   41.3560    4.4440 C.ar  360  PHE360     -0.0042
    154  CD2       14.7890   42.9060    5.7490 C.ar  360  PHE360     -0.0042
    155  CE1       15.2170   40.3210    4.8520 C.ar  360  PHE360     -0.0003
    156  CE2       13.9500   41.8820    6.1700 C.ar  360  PHE360     -0.0003
    157  CZ        14.1660   40.5840    5.7190 C.ar  360  PHE360     -0.0000
@<TRIPOS>BOND
     1    59    60    1
     2    71    70    2
     3    51    52    1
     4    60    63    1
     5    60    61    1
     6    70    69    1
     7    73    72    1
     8    68    61   am
     9    68    69    1
    10    52    53    1
    11    52    55    1
    12    53    54    2
    13    63    64    1
    14    61    62    2
    15    69    72    1
    16    72    74    1
    17   150   149    2
    18     1     2    1
    19    55    56    1
    20    64    65    1
    21     7     6    1
    22   149   148    1
    23     5     2    1
    24     5     6    1
    25    56    57   ar
    26    56    58   ar
    27     2     3    1
    28    65    67   ar
    29    65    66   ar
    30     6     8    1
    31   148   147    1
    32   148   151    1
    33     3     4    2
    34     3     9   am
    35    91    89   ar
    36    91    92   ar
    37   153   155   ar
    38   153   152   ar
    39   151   152    1
    40    89    88   ar
    41    41    39    1
    42   155   157   ar
    43    38    37    2
    44   152   154   ar
    45     9    10    1
    46    92    90   ar
    47   157   156   ar
    48   154   156   ar
    49    81    80   ar
    50    88    90   ar
    51    88    87    1
    52    37    36    1
    53    39    36    1
    54    39    40    1
    55    10    11    1
    56    10    13    1
    57    36    35    1
    58    18    16   ar
    59    18    17   ar
    60    11    12    2
    61    16    14   ar
    62    87    84    1
    63    80    79    1
    64    80    82   ar
    65    79    76    1
    66   142   141    2
    67    17    15   ar
    68    14    13    1
    69    14    15   ar
    70    86    85    2
    71    29    28    2
    72    35    28   am
    73   146   145    1
    74    85    84    1
    75    84    83    1
    76    28    27    1
    77   141   140    1
    78    76    75    1
    79    76    77    1
    80    19    20    1
    81    77    78    2
    82    22    21    2
    83   140   143    1
    84   140   139    1
    85   144   145    1
    86   144   143    1
    87    27    30    1
    88    27    26    1
    89    24    23    1
    90    20    21    1
    91    20    23    1
    92    30    31    1
    93   100    98    1
    94    25    23    1
    95   115   114    1
    96    99    98    1
    97    98    97    1
    98    42    43    1
    99    31    32    1
   100   137   135   ar
   101   137   138   ar
   102    45    44    2
   103   135   134   ar
   104   116   114    1
   105   114   113    1
   106    34    32   ar
   107    44    43    1
   108    97    94    1
   109    32    33   ar
   110    43    46    1
   111   138   136   ar
   112   134   133    1
   113   134   136   ar
   114    46    47    1
   115   113   110    1
   116    93    94    1
   117   133   130    1
   118    94    95    1
   119    47    48    1
   120    49    48    2
   121    48    50   am
   122   108   106   am
   123   129   130    1
   124   129   127   am
   125   107   106    2
   126   130   131    1
   127   110   111    1
   128   110   109    1
   129   132   131    2
   130   106   105    1
   131    95    96    2
   132   126   127    1
   133   126   125    1
   134   111   112    2
   135   109   103   am
   136   127   128    2
   137   120   119    2
   138   125   119   am
   139   103   104    2
   140   103   102    1
   141   105   102    1
   142   119   118    1
   143   101   102    1
   144   118   121    1
   145   118   117    1
   146   121   122    1
   147   123   124    1
   148   123   122    1
