@<TRIPOS>MOLECULE
tmp/1xwkC00.pdb
 202 198 0 0 0
SMALL
GASTEIGER

@<TRIPOS>ATOM
      1  N         41.1350   13.3910   40.6750 N.3     6  TYR6       -0.1227
      2  CA        40.0540   12.5380   40.1920 C.3     6  TYR6        0.1736
      3  C         38.7510   13.0780   40.7390 C.2     6  TYR6        0.2595
      4  O         38.7240   14.1120   41.4100 O.2     6  TYR6       -0.2718
      5  CB        40.2310   11.1000   40.6730 C.3     6  TYR6        0.0548
      6  CG        39.3980   10.0990   39.9060 C.ar    6  TYR6       -0.0200
      7  CD1       39.4730   10.0260   38.5150 C.ar    6  TYR6       -0.0009
      8  CD2       38.5800    9.1880   40.5680 C.ar    6  TYR6       -0.0009
      9  CE1       38.7610    9.0640   37.8020 C.ar    6  TYR6        0.0417
     10  CE2       37.8610    8.2180   39.8620 C.ar    6  TYR6        0.0417
     11  CZ        37.9640    8.1620   38.4810 C.ar    6  TYR6        0.1957
     12  OH        37.3060    7.1840   37.7800 O.3     6  TYR6       -0.2866
     13  N         37.6590   12.4120   40.3940 N.am    7  TRP7       -0.1976
     14  CA        36.3580   12.8250   40.8970 C.3     7  TRP7        0.1640
     15  C         36.2900   12.3580   42.3490 C.2     7  TRP7        0.2290
     16  O         37.1200   11.5490   42.7890 O.2     7  TRP7       -0.2864
     17  CB        35.2280   12.1820   40.0790 C.3     7  TRP7        0.0576
     18  CG        35.1870   12.6130   38.6280 C.ar    7  TRP7        0.0006
     19  CD1       35.4350   11.8340   37.5410 C.ar    7  TRP7        0.0946
     20  CD2       34.8980   13.9280   38.1200 C.ar    7  TRP7        0.0152
     21  NE1       35.3260   12.5750   36.3920 N.ar    7  TRP7       -0.2442
     22  CE2       34.9980   13.8630   36.7170 C.ar    7  TRP7        0.0810
     23  CE3       34.5680   15.1530   38.7150 C.ar    7  TRP7        0.0012
     24  CZ2       34.7830   14.9740   35.8940 C.ar    7  TRP7        0.0191
     25  CZ3       34.3530   16.2650   37.8950 C.ar    7  TRP7        0.0001
     26  CH2       34.4620   16.1630   36.5000 C.ar    7  TRP7        0.0015
     27  N         34.9450   10.1760   43.8050 N.3     9  ILE9       -0.1245
     28  CA        34.3600    8.8450   43.7310 C.3     9  ILE9        0.1561
     29  C         35.4610    7.7950   43.6870 C.2     9  ILE9        0.2260
     30  O         36.6520    8.1220   43.6990 O.2     9  ILE9       -0.2867
     31  CB        33.5160    8.6710   42.4450 C.3     9  ILE9        0.0252
     32  CG1       34.3990    8.9310   41.2150 C.3     9  ILE9        0.0019
     33  CG2       32.3070    9.6010   42.4660 C.3     9  ILE9        0.0019
     34  CD1       33.7550    8.5850   39.8930 C.3     9  ILE9        0.0001
     35  N         35.7360    4.7170   41.2380 N.3    11  GLY11      -0.1210
     36  CA        36.1070    4.5800   39.8430 C.3    11  GLY11       0.1956
     37  C         37.4670    3.9960   39.5020 C.2    11  GLY11       0.2611
     38  O         37.8430    2.8990   39.9620 O.2    11  GLY11      -0.2717
     39  N         38.1660    4.7270   38.6310 N.am   12  LEU12      -0.1979
     40  CA        39.4850    4.3600   38.1210 C.3    12  LEU12       0.1596
     41  C         40.6240    4.6380   39.0770 C.2    12  LEU12       0.2287
     42  O         41.7270    4.0940   38.9100 O.2    12  LEU12      -0.2864
     43  CB        39.7730    5.1040   36.8110 C.3    12  LEU12       0.0297
     44  CG        38.9280    4.7540   35.5830 C.3    12  LEU12       0.0022
     45  CD1       39.2640    5.6800   34.4310 C.3    12  LEU12       0.0001
     46  CD2       39.1330    3.2990   35.1870 C.3    12  LEU12       0.0001
     47  N         30.3820   20.0360   35.4410 N.3    42  ARG42      -0.1245
     48  CA        31.7490   19.5340   35.5780 C.3    42  ARG42       0.1563
     49  C         32.7730   20.6630   35.7470 C.2    42  ARG42       0.2260
     50  O         33.9490   20.4010   36.0040 O.2    42  ARG42      -0.2867
     51  CB        32.1140   18.6820   34.3440 C.3    42  ARG42       0.0307
     52  CG        31.2340   17.4420   34.1190 C.3    42  ARG42       0.0489
     53  CD        31.4230   16.8310   32.7250 C.3    42  ARG42       0.2205
     54  NE        32.4140   15.7550   32.6330 N.pl3  42  ARG42      -0.0865
     55  CZ        33.0380   15.3890   31.5100 C.cat  42  ARG42       0.5346
     56  NH1       32.7830   16.0110   30.3660 N.pl3  42  ARG42       0.1354
     57  NH2       33.9180   14.3930   31.5280 N.pl3  42  ARG42       0.1354
     58  N         36.3550   20.9370   37.4090 N.3    45  TRP45      -0.1227
     59  CA        37.4660   20.2780   36.7260 C.3    45  TRP45       0.1737
     60  C         37.8190   20.9540   35.3980 C.2    45  TRP45       0.2595
     61  O         38.9980   21.1100   35.0730 O.2    45  TRP45      -0.2718
     62  CB        37.1190   18.7960   36.5120 C.3    45  TRP45       0.0564
     63  CG        37.8520   18.0780   35.3980 C.ar   45  TRP45       0.0003
     64  CD1       37.2820   17.3870   34.3710 C.ar   45  TRP45       0.0946
     65  CD2       39.2720   17.9350   35.2340 C.ar   45  TRP45       0.0152
     66  NE1       38.2500   16.8180   33.5810 N.ar   45  TRP45      -0.2442
     67  CE2       39.4800   17.1380   34.0850 C.ar   45  TRP45       0.0810
     68  CE3       40.3850   18.3980   35.9460 C.ar   45  TRP45       0.0012
     69  CZ2       40.7580   16.7920   33.6290 C.ar   45  TRP45       0.0191
     70  CZ3       41.6590   18.0550   35.4920 C.ar   45  TRP45       0.0001
     71  CH2       41.8320   17.2580   34.3420 C.ar   45  TRP45       0.0015
     72  N         36.7960   21.3410   34.6370 N.am   46  LEU46      -0.1980
     73  CA        36.9900   21.9870   33.3450 C.3    46  LEU46       0.1596
     74  C         37.7560   23.2990   33.4160 C.2    46  LEU46       0.2287
     75  O         38.5380   23.6130   32.5160 O.2    46  LEU46      -0.2864
     76  CB        35.6500   22.1920   32.6450 C.3    46  LEU46       0.0297
     77  CG        34.9070   20.8910   32.3000 C.3    46  LEU46       0.0022
     78  CD1       33.6160   21.2010   31.5560 C.3    46  LEU46       0.0001
     79  CD2       35.7910   19.9810   31.4520 C.3    46  LEU46       0.0001
     80  N         41.2930   21.8540   33.9320 N.3    49  LYS49      -0.1245
     81  CA        41.7200   20.8690   32.9490 C.3    49  LYS49       0.1561
     82  C         42.9470   21.2060   32.1080 C.2    49  LYS49       0.2260
     83  O         43.8700   20.3930   31.9880 O.2    49  LYS49      -0.2867
     84  CB        40.5600   20.5200   32.0260 C.3    49  LYS49       0.0271
     85  CG        40.8510   19.3460   31.1260 C.3    49  LYS49       0.0035
     86  CD        39.6420   18.9620   30.3160 C.3    49  LYS49       0.0206
     87  CE        39.8370   17.6060   29.6660 C.3    49  LYS49       0.1093
     88  NZ        38.6130   17.1680   28.9250 N.3    49  LYS49      -0.1314
     89  N         45.0500   16.0660   28.9120 N.3    57  PRO57      -0.2102
     90  CA        44.1180   16.3670   30.0100 C.3    57  PRO57       0.1504
     91  C         43.0380   15.3170   30.2440 C.2    57  PRO57       0.2576
     92  O         42.2180   15.0560   29.3670 O.2    57  PRO57      -0.2718
     93  CB        43.5460   17.7160   29.5970 C.3    57  PRO57       0.0282
     94  CG        44.7500   18.3870   29.0050 C.3    57  PRO57       0.0208
     95  CD        45.3090   17.2820   28.1160 C.3    57  PRO57       0.0893
     96  N         43.0270   14.7440   31.4450 N.am   58  ASN58      -0.1961
     97  CA        42.0690   13.6960   31.7790 C.3    58  ASN58       0.1819
     98  C         42.0590   13.3880   33.2850 C.2    58  ASN58       0.2621
     99  O         42.7570   14.0290   34.0770 O.2    58  ASN58      -0.2715
    100  CB        42.4590   12.4330   31.0150 C.3    58  ASN58       0.1195
    101  CG        41.2690   11.6130   30.5940 C.2    58  ASN58       0.2630
    102  OD1       40.2150   11.6390   31.2360 O.2    58  ASN58      -0.2716
    103  ND2       41.4270   10.8690   29.5010 N.am   58  ASN58      -0.0877
    104  N         41.2360   12.4250   33.6800 N.am   59  LEU59      -0.1964
    105  CA        41.1400   11.9950   35.0700 C.3    59  LEU59       0.1713
    106  C         41.0990   10.4790   35.0050 C.2    59  LEU59       0.2458
    107  O         40.3510    9.9120   34.2110 O.2    59  LEU59      -0.2730
    108  CB        39.8660   12.5230   35.7390 C.3    59  LEU59       0.0310
    109  CG        39.7560   14.0420   35.9110 C.3    59  LEU59       0.0022
    110  CD1       38.4100   14.4010   36.4890 C.3    59  LEU59       0.0001
    111  CD2       40.8610   14.5500   36.8090 C.3    59  LEU59       0.0001
    112  N         41.8700    9.7970   35.8690 N.am   60  PRO60      -0.2727
    113  CA        42.7440   10.4050   36.8750 C.3    60  PRO60       0.1402
    114  C         44.0210   10.9460   36.2780 C.2    60  PRO60       0.2269
    115  O         44.4160   10.5640   35.1640 O.2    60  PRO60      -0.2865
    116  CB        43.0590    9.2260   37.7840 C.3    60  PRO60       0.0296
    117  CG        43.2090    8.1180   36.7960 C.3    60  PRO60       0.0237
    118  CD        42.0110    8.3280   35.8820 C.3    60  PRO60       0.0939
    119  N         46.0260    8.8160   32.1820 N.3    71  GLN71      -0.1231
    120  CA        45.8160    7.4090   31.8100 C.3    71  GLN71       0.1698
    121  C         46.1490    6.5420   33.0050 C.2    71  GLN71       0.2592
    122  O         47.3140    6.3520   33.3340 O.2    71  GLN71      -0.2718
    123  CB        46.6860    6.9820   30.6160 C.3    71  GLN71       0.0381
    124  CG        46.3580    7.6820   29.2960 C.3    71  GLN71       0.0905
    125  CD        44.9750    7.3460   28.7860 C.2    71  GLN71       0.2608
    126  OE1       44.4330    6.2720   29.0750 O.2    71  GLN71      -0.2717
    127  NE2       44.3810    8.2710   28.0460 N.am   71  GLN71      -0.0878
    128  N         45.1120    6.0250   33.6510 N.am   72  SER72      -0.1952
    129  CA        45.2730    5.1920   34.8310 C.3    72  SER72       0.1924
    130  C         46.4280    4.2010   34.7710 C.2    72  SER72       0.2314
    131  O         47.2680    4.1850   35.6670 O.2    72  SER72      -0.2863
    132  CB        43.9620    4.4670   35.1690 C.3    72  SER72       0.2116
    133  OG        43.4810    3.6820   34.0920 O.3    72  SER72      -0.2180
    134  N         41.1880   -3.4230   32.0830 N.3   104  MET104     -0.1245
    135  CA        40.6780   -2.1620   31.5650 C.3   104  MET104      0.1570
    136  C         39.4780   -2.4170   30.6560 C.2   104  MET104      0.2261
    137  O         38.5710   -1.5900   30.5750 O.2   104  MET104     -0.2867
    138  CB        41.7820   -1.4370   30.7920 C.3   104  MET104      0.0387
    139  CG        41.3380   -0.1680   30.1070 C.3   104  MET104      0.0595
    140  SD        40.7280    1.0390   31.2640 S.3   104  MET104     -0.1393
    141  CE        42.0930    2.1480   31.3290 C.3   104  MET104      0.0692
    142  N         36.4630   -3.7020   32.7280 N.3   107  HIS107     -0.1226
    143  CA        36.0060   -2.5660   33.5060 C.3   107  HIS107      0.1752
    144  C         35.0550   -1.7320   32.6630 C.2   107  HIS107      0.2595
    145  O         33.9130   -1.5040   33.0650 O.2   107  HIS107     -0.2718
    146  CB        37.1950   -1.7140   33.9540 C.3   107  HIS107      0.0759
    147  CG        36.8160   -0.5490   34.8170 C.ar  107  HIS107      0.0818
    148  ND1       36.8730   -0.5900   36.1970 N.ar  107  HIS107     -0.2268
    149  CD2       36.3670    0.6900   34.4970 C.ar  107  HIS107      0.1154
    150  CE1       36.4740    0.5700   36.6890 C.ar  107  HIS107      0.1986
    151  NE2       36.1620    1.3650   35.6790 N.ar  107  HIS107     -0.2212
    152  N         35.5470   -1.2390   31.5220 N.am  108  MET108     -0.1979
    153  CA        34.7410   -0.4300   30.6050 C.3   108  MET108      0.1605
    154  C         33.4400   -1.1220   30.2510 C.2   108  MET108      0.2287
    155  O         32.4320   -0.4670   30.0120 O.2   108  MET108     -0.2864
    156  CB        35.5460    0.1400   29.4270 C.3   108  MET108      0.0413
    157  CG        36.1390    1.5120   29.6780 C.3   108  MET108      0.0598
    158  SD        35.8490    2.2270   31.3250 S.3   108  MET108     -0.1393
    159  CE        37.3190    3.2430   31.5150 C.3   108  MET108      0.0692
    160  N         31.2460   -0.5050   33.1250 N.3   111  GLY111     -0.1210
    161  CA        30.9570    0.9120   33.0780 C.3   111  GLY111      0.1956
    162  C         29.9480    1.2890   32.0200 C.2   111  GLY111      0.2611
    163  O         29.0720    2.1120   32.2720 O.2   111  GLY111     -0.2717
    164  N         30.0770    0.6960   30.8380 N.am  112  MET112     -0.1979
    165  CA        29.1760    0.9900   29.7290 C.3   112  MET112      0.1605
    166  C         27.7070    0.7470   30.0350 C.2   112  MET112      0.2287
    167  O         26.8670    1.5970   29.7300 O.2   112  MET112     -0.2864
    168  CB        29.5730    0.2150   28.4690 C.3   112  MET112      0.0413
    169  CG        30.8100    0.7570   27.7750 C.3   112  MET112      0.0598
    170  SD        31.1350   -0.0020   26.1650 S.3   112  MET112     -0.1393
    171  CE        31.4890   -1.7180   26.6180 C.3   112  MET112      0.0692
    172  N         26.1420    2.8520   32.8980 N.3   115  TYR115     -0.1241
    173  CA        25.9050    4.2380   32.5170 C.3   115  TYR115      0.1605
    174  C         24.7890    4.2800   31.4800 C.2   115  TYR115      0.2264
    175  O         24.3200    5.3600   31.0940 O.2   115  TYR115     -0.2867
    176  CB        27.1740    4.8700   31.9430 C.3   115  TYR115      0.0534
    177  CG        28.1280    5.4300   32.9800 C.ar  115  TYR115     -0.0201
    178  CD1       28.2900    6.8110   33.1270 C.ar  115  TYR115     -0.0009
    179  CD2       28.8860    4.5850   33.7950 C.ar  115  TYR115     -0.0009
    180  CE1       29.1860    7.3390   34.0540 C.ar  115  TYR115      0.0417
    181  CE2       29.7840    5.1000   34.7230 C.ar  115  TYR115      0.0417
    182  CZ        29.9300    6.4790   34.8460 C.ar  115  TYR115      0.1957
    183  OH        30.8440    6.9890   35.7410 O.3   115  TYR115     -0.2866
    184  N         30.6820    4.6900   40.6870 N.3   208  PHE208     -0.1241
    185  CA        30.7650    5.5200   39.4770 C.3   208  PHE208      0.1605
    186  C         30.3040    6.9510   39.7610 C.2   208  PHE208      0.2264
    187  O         29.9390    7.2770   40.9000 O.2   208  PHE208     -0.2867
    188  CB        29.9120    4.9220   38.3570 C.3   208  PHE208      0.0534
    189  CG        30.3650    3.5630   37.9190 C.ar  208  PHE208     -0.0203
    190  CD1       31.6320    3.3850   37.3730 C.ar  208  PHE208     -0.0042
    191  CD2       29.5380    2.4510   38.0800 C.ar  208  PHE208     -0.0042
    192  CE1       32.0740    2.1160   36.9950 C.ar  208  PHE208     -0.0003
    193  CE2       29.9680    1.1740   37.7070 C.ar  208  PHE208     -0.0003
    194  CZ        31.2380    1.0040   37.1640 C.ar  208  PHE208     -0.0000
    195  N         26.2980   10.4900   37.0040 N.3   211  MET211     -0.1245
    196  CA        25.6350   10.1920   35.7310 C.3   211  MET211      0.1570
    197  C         25.2520    8.7140   35.6140 C.2   211  MET211      0.2261
    198  O         24.4390    8.3440   34.7680 O.2   211  MET211     -0.2867
    199  CB        26.5500   10.5660   34.5500 C.3   211  MET211      0.0387
    200  CG        27.1570   11.9700   34.6200 C.3   211  MET211      0.0595
    201  SD        28.2360   12.3910   33.2170 S.3   211  MET211     -0.1393
    202  CE        29.7430   11.4870   33.6440 C.3   211  MET211      0.0692
@<TRIPOS>BOND
     1   170   171    1
     2   170   169    1
     3   169   168    1
     4   127   125   am
     5    95    89    1
     6    95    94    1
     7   168   165    1
     8   125   126    2
     9   125   124    1
    10    89    90    1
    11    88    87    1
    12    94    93    1
    13   124   123    1
    14    92    91    2
    15   156   157    1
    16   156   153    1
    17   103   101   am
    18    93    90    1
    19    87    86    1
    20   157   158    1
    21   165   166    1
    22   165   164    1
    23   167   166    2
    24    90    91    1
    25   155   154    2
    26   139   138    1
    27   139   140    1
    28    91    96   am
    29   154   153    1
    30    86    85    1
    31    56    55    1
    32   137   136    2
    33   101   100    1
    34   101   102    2
    35   153   152    1
    36   123   120    1
    37   136   135    1
    38   138   135    1
    39   164   162   am
    40   100    97    1
    41   175   174    2
    42    85    84    1
    43   140   141    1
    44   158   159    1
    45    96    97    1
    46    79    77    1
    47   174   173    1
    48    55    57    1
    49    55    54    2
    50   152   144   am
    51    78    77    1
    52   135   134    1
    53    97    98    1
    54   120   119    1
    55   120   121    1
    56   176   173    1
    57   176   177    1
    58    83    82    2
    59   162   163    2
    60   162   161    1
    61    84    81    1
    62    82    81    1
    63    77    76    1
    64    75    74    2
    65   173   172    1
    66    54    53    1
    67    76    73    1
    68   144   145    2
    69   144   143    1
    70    53    52    1
    71   142   143    1
    72    81    80    1
    73   177   178   ar
    74   177   179   ar
    75   121   122    2
    76   121   128   am
    77   161   160    1
    78   178   180   ar
    79   201   202    1
    80   201   200    1
    81    98   104   am
    82    98    99    2
    83    73    74    1
    84    73    72    1
    85   143   146    1
    86    66    67   ar
    87    66    64   ar
    88    69    67   ar
    89    69    71   ar
    90   128   129    1
    91   104   105    1
    92   179   181   ar
    93   146   147    1
    94   180   182   ar
    95    67    65   ar
    96   133   132    1
    97    52    51    1
    98   107   106    2
    99    71    70   ar
   100    51    48    1
   101    64    63   ar
   102    45    44    1
   103   149   147   ar
   104   149   151   ar
   105   199   200    1
   106   199   196    1
   107    72    60   am
   108   181   182   ar
   109   198   197    2
   110   130   129    1
   111   130   131    2
   112   147   148   ar
   113   129   132    1
   114   182   183    1
   115   106   105    1
   116   106   112   am
   117   105   108    1
   118    61    60    2
   119   115   114    2
   120    46    44    1
   121    65    63   ar
   122    65    68   ar
   123    60    59    1
   124    63    62    1
   125    47    48    1
   126    70    68   ar
   127    48    49    1
   128    44    43    1
   129   197   196    1
   130   151   150   ar
   131   196   195    1
   132   108   109    1
   133    49    50    2
   134   112   118    1
   135   112   113    1
   136   118   117    1
   137    24    26   ar
   138    24    22   ar
   139   109   110    1
   140   109   111    1
   141   148   150   ar
   142   114   113    1
   143    21    22   ar
   144    21    19   ar
   145    26    25   ar
   146    62    59    1
   147    22    20   ar
   148    59    58    1
   149   117   116    1
   150    43    40    1
   151   113   116    1
   152   192   194   ar
   153   192   190   ar
   154   194   193   ar
   155   190   189   ar
   156    19    18   ar
   157   193   191   ar
   158    12    11    1
   159     9    11   ar
   160     9     7   ar
   161    25    23   ar
   162   189   191   ar
   163   189   188    1
   164    20    18   ar
   165    20    23   ar
   166    40    39    1
   167    40    41    1
   168   188   185    1
   169    11    10   ar
   170     7     6   ar
   171    18    17    1
   172    39    37   am
   173    42    41    2
   174   185   186    1
   175   185   184    1
   176    37    36    1
   177    37    38    2
   178   186   187    2
   179    36    35    1
   180    10     8   ar
   181    34    32    1
   182     6     8   ar
   183     6     5    1
   184    17    14    1
   185     2     5    1
   186     2     1    1
   187     2     3    1
   188    13     3   am
   189    13    14    1
   190     3     4    2
   191    14    15    1
   192    32    31    1
   193    15    16    2
   194    31    33    1
   195    31    28    1
   196    29    30    2
   197    29    28    1
   198    28    27    1
