@<TRIPOS>MOLECULE
tmp/1xwqA00.pdb
 190 186 0 0 0
SMALL
GASTEIGER

@<TRIPOS>ATOM
      1  N        -14.8300    1.8670   21.0100 N.3    68  ASN68      -0.1240
      2  CA       -14.7280    0.5030   20.5180 C.3    68  ASN68       0.1653
      3  C        -16.1230   -0.0870   20.2950 C.2    68  ASN68       0.2266
      4  O        -16.7880   -0.5060   21.2490 O.2    68  ASN68      -0.2867
      5  CB       -13.9170   -0.3430   21.5050 C.3    68  ASN68       0.1155
      6  CG       -13.4700   -1.6690   20.9230 C.2    68  ASN68       0.2627
      7  OD1      -14.0760   -2.1970   19.9850 O.2    68  ASN68      -0.2716
      8  ND2      -12.4030   -2.2250   21.4900 N.am   68  ASN68      -0.0877
      9  N        -16.7450   -2.8180   18.7770 N.3    70  ASP70      -0.1239
     10  CA       -16.6570   -4.2780   18.7570 C.3    70  ASP70       0.1674
     11  C        -16.7070   -4.9310   20.1400 C.2    70  ASP70       0.2266
     12  O        -17.3100   -5.9980   20.2960 O.2    70  ASP70      -0.2867
     13  CB       -15.4150   -4.7180   17.9920 C.3    70  ASP70       0.1410
     14  CG       -15.3680   -4.1310   16.5990 C.2    70  ASP70       0.3668
     15  OD1      -14.5440   -3.2150   16.3680 O.co2  70  ASP70      -0.2456
     16  OD2      -16.1430   -4.4970   15.6840 O.co2  70  ASP70      -0.2456
     17  N         -7.6420    3.5600   28.0250 N.3    76  ARG76      -0.1245
     18  CA        -6.3290    2.9130   27.9220 C.3    76  ARG76       0.1563
     19  C         -5.1930    3.8370   28.3400 C.2    76  ARG76       0.2260
     20  O         -5.2490    5.0420   28.0880 O.2    76  ARG76      -0.2867
     21  CB        -6.1070    2.4050   26.4930 C.3    76  ARG76       0.0307
     22  CG        -7.1400    1.3770   26.0780 C.3    76  ARG76       0.0489
     23  CD        -6.9600    0.7670   24.6950 C.3    76  ARG76       0.2205
     24  NE        -8.0250   -0.2130   24.4800 N.pl3  76  ARG76      -0.0865
     25  CZ        -7.9440   -1.2800   23.6990 C.cat  76  ARG76       0.5346
     26  NH1       -6.8400   -1.5350   23.0060 N.pl3  76  ARG76       0.1354
     27  NH2       -8.9830   -2.0990   23.6050 N.pl3  76  ARG76       0.1354
     28  N         -2.2610    3.8400   27.0750 N.3    78  GLN78      -0.1245
     29  CA        -1.6860    4.2490   25.8120 C.3    78  GLN78       0.1566
     30  C         -2.2840    5.5790   25.3040 C.2    78  GLN78       0.2260
     31  O         -1.5490    6.5500   25.0900 O.2    78  GLN78      -0.2867
     32  CB        -1.8560    3.1080   24.8150 C.3    78  GLN78       0.0367
     33  CG        -1.6560    3.4760   23.3970 C.3    78  GLN78       0.0905
     34  CD        -2.1660    2.4050   22.4790 C.2    78  GLN78       0.2608
     35  OE1       -3.3370    2.4360   22.0690 O.2    78  GLN78      -0.2717
     36  NE2       -1.3030    1.4360   22.1570 N.am   78  GLN78      -0.0878
     37  N         -3.8610   -1.1170   32.2820 N.3   124  TRP124     -0.1241
     38  CA        -3.9740   -0.7590   30.8750 C.3   124  TRP124      0.1605
     39  C         -5.3920   -0.5440   30.3790 C.2   124  TRP124      0.2264
     40  O         -5.6110    0.2390   29.4530 O.2   124  TRP124     -0.2867
     41  CB        -3.2020   -1.7370   29.9870 C.3   124  TRP124      0.0550
     42  CG        -3.9800   -2.9230   29.4890 C.ar  124  TRP124      0.0003
     43  CD1       -4.1170   -4.1370   30.1090 C.ar  124  TRP124      0.0946
     44  CD2       -4.6900   -3.0260   28.2470 C.ar  124  TRP124      0.0152
     45  NE1       -4.8700   -4.9820   29.3300 N.ar  124  TRP124     -0.2442
     46  CE2       -5.2410   -4.3260   28.1840 C.ar  124  TRP124      0.0810
     47  CE3       -4.9160   -2.1490   27.1740 C.ar  124  TRP124      0.0012
     48  CZ2       -6.0050   -4.7720   27.0940 C.ar  124  TRP124      0.0191
     49  CZ3       -5.6750   -2.5900   26.0920 C.ar  124  TRP124      0.0001
     50  CH2       -6.2120   -3.8940   26.0640 C.ar  124  TRP124      0.0015
     51  N          0.7780   -5.4490   12.2030 N.3   279  GLU279     -0.1231
     52  CA        -0.5940   -5.0710   12.5100 C.3   279  GLU279      0.1699
     53  C         -0.5950   -3.7090   13.2070 C.2   279  GLU279      0.2592
     54  O          0.3310   -2.9190   13.0310 O.2   279  GLU279     -0.2718
     55  CB        -1.2850   -6.1550   13.3630 C.3   279  GLU279      0.0402
     56  CG        -0.4440   -6.7270   14.5050 C.3   279  GLU279      0.1161
     57  CD         0.1070   -5.6540   15.4320 C.2   279  GLU279      0.3649
     58  OE1       -0.5590   -5.3210   16.4370 O.co2 279  GLU279     -0.2457
     59  OE2        1.2070   -5.1280   15.1430 O.co2 279  GLU279     -0.2457
     60  N         -1.6140   -3.4660   14.0230 N.am  280  PHE280     -0.1962
     61  CA        -1.8610   -2.1530   14.6200 C.3   280  PHE280      0.1771
     62  C         -0.7150   -1.5840   15.4640 C.2   280  PHE280      0.2619
     63  O         -0.3670   -0.4190   15.3080 O.2   280  PHE280     -0.2715
     64  CB        -3.2020   -2.1770   15.3740 C.3   280  PHE280      0.0574
     65  CG        -4.3100   -2.8180   14.5790 C.ar  280  PHE280     -0.0200
     66  CD1       -4.6440   -4.1580   14.7760 C.ar  280  PHE280     -0.0042
     67  CD2       -4.9780   -2.0970   13.5900 C.ar  280  PHE280     -0.0042
     68  CE1       -5.6470   -4.7630   14.0150 C.ar  280  PHE280     -0.0003
     69  CE2       -5.9850   -2.6940   12.8200 C.ar  280  PHE280     -0.0003
     70  CZ        -6.3160   -4.0270   13.0340 C.ar  280  PHE280     -0.0000
     71  N         -0.1340   -2.3980   16.3460 N.am  281  ASP281     -0.1971
     72  CA         1.0640   -1.9890   17.0880 C.3   281  ASP281      0.1709
     73  C          2.2030   -1.6680   16.1130 C.2   281  ASP281      0.2293
     74  O          2.8190   -0.6030   16.1930 O.2   281  ASP281     -0.2864
     75  CB         1.5320   -3.1050   18.0260 C.3   281  ASP281      0.1436
     76  CG         0.7810   -3.1360   19.3460 C.2   281  ASP281      0.3671
     77  OD1       -0.4040   -2.7240   19.4070 O.co2 281  ASP281     -0.2456
     78  OD2        1.3140   -3.5820   20.3830 O.co2 281  ASP281     -0.2456
     79  N          2.4120   -0.6510   13.1320 N.3   283  TRP283     -0.1227
     80  CA         2.3100    0.6090   12.3810 C.3   283  TRP283      0.1737
     81  C          3.2550    1.6540   12.9510 C.2   283  TRP283      0.2595
     82  O          3.8510    2.4390   12.2050 O.2   283  TRP283     -0.2718
     83  CB         0.9160    1.2230   12.4900 C.3   283  TRP283      0.0564
     84  CG        -0.2110    0.5030   11.8500 C.ar  283  TRP283      0.0003
     85  CD1       -0.1620   -0.6350   11.0850 C.ar  283  TRP283      0.0946
     86  CD2       -1.5820    0.8850   11.9170 C.ar  283  TRP283      0.0152
     87  NE1       -1.4310   -0.9860   10.6880 N.ar  283  TRP283     -0.2442
     88  CE2       -2.3220   -0.0660   11.1850 C.ar  283  TRP283      0.0810
     89  CE3       -2.2710    1.9420   12.5390 C.ar  283  TRP283      0.0012
     90  CZ2       -3.7080    0.0010   11.0600 C.ar  283  TRP283      0.0191
     91  CZ3       -3.6480    2.0070   12.4170 C.ar  283  TRP283      0.0001
     92  CH2       -4.3530    1.0420   11.6830 C.ar  283  TRP283      0.0015
     93  N          3.3650    1.6610   14.2840 N.am  284  ARG284     -0.1980
     94  CA         4.1040    2.6890   15.0150 C.3   284  ARG284      0.1597
     95  C          5.6180    2.5730   14.9060 C.2   284  ARG284      0.2287
     96  O          6.3290    3.5500   15.1680 O.2   284  ARG284     -0.2864
     97  CB         3.7190    2.6730   16.4980 C.3   284  ARG284      0.0334
     98  CG         2.2530    2.9210   16.7550 C.3   284  ARG284      0.0492
     99  CD         1.9470    3.4710   18.1290 C.3   284  ARG284      0.2205
    100  NE         2.4210    2.6370   19.2410 N.pl3 284  ARG284     -0.0865
    101  CZ         1.7510    1.6050   19.7480 C.cat 284  ARG284      0.5346
    102  NH1        0.5970    1.2300   19.2210 N.pl3 284  ARG284      0.1354
    103  NH2        2.2440    0.9430   20.7790 N.pl3 284  ARG284      0.1354
    104  N         -3.9260   -2.6820    6.2690 N.3   327  GLN327     -0.1245
    105  CA        -3.6160   -2.4900    7.6850 C.3   327  GLN327      0.1566
    106  C         -2.8090   -3.6140    8.3160 C.2   327  GLN327      0.2260
    107  O         -2.1150   -3.3940    9.3150 O.2   327  GLN327     -0.2867
    108  CB        -4.9020   -2.2470    8.4790 C.3   327  GLN327      0.0367
    109  CG        -5.5960   -0.9520    8.0430 C.3   327  GLN327      0.0905
    110  CD        -6.7860   -0.5670    8.8990 C.2   327  GLN327      0.2608
    111  OE1       -6.9210    0.6060    9.2680 O.2   327  GLN327     -0.2717
    112  NE2       -7.6580   -1.5240    9.1940 N.am  327  GLN327     -0.0878
    113  N         -7.5600   -7.1260    6.1040 N.3   337  ARG337     -0.1231
    114  CA        -8.0890   -6.4010    7.2590 C.3   337  ARG337      0.1694
    115  C         -8.2960   -4.9170    6.9710 C.2   337  ARG337      0.2593
    116  O         -8.2450   -4.0830    7.8820 O.2   337  ARG337     -0.2718
    117  CB        -7.1980   -6.6120    8.4870 C.3   337  ARG337      0.0321
    118  CG        -7.2030   -8.0410    8.9970 C.3   337  ARG337      0.0489
    119  CD        -8.5090   -8.4790    9.6710 C.3   337  ARG337      0.2205
    120  NE        -8.5310   -9.9260    9.8630 N.pl3 337  ARG337     -0.0865
    121  CZ        -8.2260  -10.5400   11.0000 C.cat 337  ARG337      0.5346
    122  NH1       -7.8770   -9.8370   12.0700 N.pl3 337  ARG337      0.1354
    123  NH2       -8.2710  -11.8630   11.0670 N.pl3 337  ARG337      0.1354
    124  N         -8.5280   -4.6010    5.6980 N.am  338  GLY338     -0.1942
    125  CA        -8.9290   -3.2660    5.2970 C.3   338  GLY338      0.2014
    126  C         -7.7930   -2.4010    4.7920 C.2   338  GLY338      0.2639
    127  O         -6.6340   -2.6130    5.1530 O.2   338  GLY338     -0.2714
    128  N         -8.1440   -1.4300    3.9500 N.am  339  CYS339     -0.1967
    129  CA        -7.2150   -0.4160    3.4690 C.3   339  CYS339      0.1712
    130  C         -6.6610    0.4110    4.6300 C.2   339  CYS339      0.2296
    131  O         -7.3520    0.6210    5.6240 O.2   339  CYS339     -0.2864
    132  CB        -7.9280    0.5030    2.4710 C.3   339  CYS339      0.0983
    133  SG        -8.1460   -0.2510    0.8400 S.3   339  CYS339     -0.0798
    134  N         -5.8740    3.0610    7.2120 N.3   341  GLY341     -0.1210
    135  CA        -6.6480    4.1770    7.7280 C.3   341  GLY341      0.1956
    136  C         -5.7650    5.3630    8.0600 C.2   341  GLY341      0.2611
    137  O         -4.5660    5.3850    7.7330 O.2   341  GLY341     -0.2717
    138  N         -6.3540    6.3480    8.7290 N.am  342  GLU342     -0.1979
    139  CA        -5.6630    7.6020    9.0030 C.3   342  GLU342      0.1602
    140  C         -4.4340    7.4080    9.8920 C.2   342  GLU342      0.2287
    141  O         -3.4010    8.0080    9.6420 O.2   342  GLU342     -0.2864
    142  CB        -6.6180    8.6370    9.6070 C.3   342  GLU342      0.0415
    143  CG        -7.8210    8.9650    8.7240 C.3   342  GLU342      0.1163
    144  CD        -9.0610    8.1850    9.1130 C.2   342  GLU342      0.3649
    145  OE1       -8.9210    7.0980    9.7130 O.co2 342  GLU342     -0.2457
    146  OE2      -10.1840    8.6530    8.8210 O.co2 342  GLU342     -0.2457
    147  N        -13.9580    4.2610   14.8270 N.3   378  TYR378     -0.1241
    148  CA       -12.5660    3.8190   14.9320 C.3   378  TYR378      0.1605
    149  C        -11.5540    4.9520   15.0990 C.2   378  TYR378      0.2264
    150  O        -10.3570    4.7720   14.8410 O.2   378  TYR378     -0.2867
    151  CB       -12.1960    2.9160   13.7470 C.3   378  TYR378      0.0534
    152  CG       -12.9730    1.6190   13.7480 C.ar  378  TYR378     -0.0201
    153  CD1      -12.7860    0.6770   14.7620 C.ar  378  TYR378     -0.0009
    154  CD2      -13.9210    1.3460   12.7570 C.ar  378  TYR378     -0.0009
    155  CE1      -13.5050   -0.5130   14.7800 C.ar  378  TYR378      0.0417
    156  CE2      -14.6520    0.1510   12.7680 C.ar  378  TYR378      0.0417
    157  CZ       -14.4330   -0.7710   13.7820 C.ar  378  TYR378      0.1957
    158  OH       -15.1400   -1.9530   13.8130 O.3   378  TYR378     -0.2866
    159  N        -10.3750    6.3610   17.8350 N.3   380  TYR380     -0.1227
    160  CA        -9.4360    6.3200   18.9630 C.3   380  TYR380      0.1736
    161  C         -7.9990    6.1600   18.4780 C.2   380  TYR380      0.2595
    162  O         -7.1490    7.0070   18.7470 O.2   380  TYR380     -0.2718
    163  CB        -9.7580    5.2180   19.9870 C.3   380  TYR380      0.0548
    164  CG        -8.5670    4.9060   20.8730 C.ar  380  TYR380     -0.0200
    165  CD1       -8.1520    5.8090   21.8570 C.ar  380  TYR380     -0.0009
    166  CD2       -7.8250    3.7350   20.7000 C.ar  380  TYR380     -0.0009
    167  CE1       -7.0450    5.5450   22.6600 C.ar  380  TYR380      0.0417
    168  CE2       -6.7050    3.4630   21.5000 C.ar  380  TYR380      0.0417
    169  CZ        -6.3240    4.3760   22.4750 C.ar  380  TYR380      0.1957
    170  OH        -5.2260    4.1210   23.2730 O.3   380  TYR380     -0.2866
    171  N         -7.7320    5.0650   17.7740 N.am  381  TYR381     -0.1962
    172  CA        -6.3660    4.7500   17.3880 C.3   381  TYR381      0.1771
    173  C         -5.9090    5.6360   16.2340 C.2   381  TYR381      0.2619
    174  O         -4.8150    6.2130   16.2800 O.2   381  TYR381     -0.2715
    175  CB        -6.2170    3.2600   17.0670 C.3   381  TYR381      0.0574
    176  CG        -4.7810    2.7940   17.0120 C.ar  381  TYR381     -0.0198
    177  CD1       -3.9240    2.9730   18.0990 C.ar  381  TYR381     -0.0009
    178  CD2       -4.2810    2.1610   15.8790 C.ar  381  TYR381     -0.0009
    179  CE1       -2.6040    2.5520   18.0450 C.ar  381  TYR381      0.0417
    180  CE2       -2.9650    1.7340   15.8190 C.ar  381  TYR381      0.0417
    181  CZ        -2.1300    1.9360   16.8990 C.ar  381  TYR381      0.1957
    182  OH        -0.8190    1.5150   16.8410 O.3   381  TYR381     -0.2866
    183  N         -6.7540    5.7550   15.2130 N.am  382  ASN382     -0.1972
    184  CA        -6.4690    6.6320   14.0810 C.3   382  ASN382      0.1688
    185  C         -6.3270    8.0950   14.4780 C.2   382  ASN382      0.2292
    186  O         -5.4020    8.7710   14.0360 O.2   382  ASN382     -0.2864
    187  CB        -7.5390    6.4790   13.0070 C.3   382  ASN382      0.1181
    188  CG        -7.4410    5.1530   12.2800 C.2   382  ASN382      0.2629
    189  OD1       -6.3690    4.7700   11.8140 O.2   382  ASN382     -0.2716
    190  ND2       -8.5630    4.4350   12.1940 N.am  382  ASN382     -0.0877
@<TRIPOS>BOND
     1   133   132    1
     2   132   129    1
     3   129   128    1
     4   129   130    1
     5   128   126   am
     6   130   131    2
     7   126   127    2
     8   126   125    1
     9   125   124    1
    10   124   115   am
    11   113   114    1
    12   104   105    1
    13   115   114    1
    14   115   116    2
    15   134   135    1
    16   114   117    1
    17   105   106    1
    18   105   108    1
    19   135   136    1
    20   137   136    2
    21   109   108    1
    22   109   110    1
    23   136   138   am
    24   106   107    2
    25   117   118    1
    26   143   144    1
    27   143   142    1
    28   138   139    1
    29   146   144   ar
    30   110   112   am
    31   110   111    2
    32   118   119    1
    33   139   142    1
    34   139   140    1
    35   144   145   ar
    36   141   140    2
    37   119   120    1
    38   120   121    2
    39    87    85   ar
    40    87    88   ar
    41   121   123    1
    42   121   122    1
    43    90    88   ar
    44    90    92   ar
    45    85    84   ar
    46    88    86   ar
    47    92    91   ar
    48   189   188    2
    49    84    86   ar
    50    84    83    1
    51    86    89   ar
    52   190   188   am
    53    51    52    1
    54    82    81    2
    55   188   187    1
    56    80    83    1
    57    80    81    1
    58    80    79    1
    59    91    89   ar
    60    52    53    1
    61    52    55    1
    62   154   156   ar
    63   154   152   ar
    64   156   157   ar
    65    69    70   ar
    66    69    67   ar
    67    81    93   am
    68   187   184    1
    69    54    53    2
    70    70    68   ar
    71    53    60   am
    72    55    56    1
    73    67    65   ar
    74   151   152    1
    75   151   148    1
    76   152   153   ar
    77   157   158    1
    78   157   155   ar
    79    68    66   ar
    80    60    61    1
    81   186   185    2
    82   184   185    1
    83   184   183    1
    84    93    94    1
    85    56    57    1
    86    65    66   ar
    87    65    64    1
    88    61    64    1
    89    61    62    1
    90   153   155   ar
    91   147   148    1
    92   150   149    2
    93    95    94    1
    94    95    96    2
    95   148   149    1
    96    94    97    1
    97    59    57   ar
    98   183   173   am
    99    63    62    2
   100    57    58   ar
   101    62    71   am
   102    16    14   ar
   103   180   178   ar
   104   180   181   ar
   105   178   176   ar
   106    73    74    2
   107    73    72    1
   108   173   174    2
   109   173   172    1
   110    71    72    1
   111    15    14   ar
   112    97    98    1
   113    14    13    1
   114    98    99    1
   115   182   181    1
   116   181   179   ar
   117   176   175    1
   118   176   177   ar
   119   175   172    1
   120    72    75    1
   121   172   171    1
   122   171   161   am
   123   159   160    1
   124    13    10    1
   125    75    76    1
   126   179   177   ar
   127    99   100    1
   128   161   162    2
   129   161   160    1
   130    10     9    1
   131    10    11    1
   132   160   163    1
   133   102   101    1
   134   100   101    2
   135    76    77   ar
   136    76    78   ar
   137   101   103    1
   138     7     6    2
   139   163   164    1
   140    11    12    2
   141     3     2    1
   142     3     4    2
   143     2     1    1
   144     2     5    1
   145   166   164   ar
   146   166   168   ar
   147   164   165   ar
   148     6     8   am
   149     6     5    1
   150   168   169   ar
   151   165   167   ar
   152    35    34    2
   153    36    34   am
   154   169   167   ar
   155   169   170    1
   156    34    33    1
   157    26    25    1
   158    33    32    1
   159    27    25    1
   160    25    24    2
   161    24    23    1
   162    23    22    1
   163    32    29    1
   164    31    30    2
   165    30    29    1
   166    29    28    1
   167    50    49   ar
   168    50    48   ar
   169    22    21    1
   170    49    47   ar
   171    21    18    1
   172    48    46   ar
   173    47    44   ar
   174    18    17    1
   175    18    19    1
   176    20    19    2
   177    46    44   ar
   178    46    45   ar
   179    44    42   ar
   180    45    43   ar
   181    40    39    2
   182    42    41    1
   183    42    43   ar
   184    41    38    1
   185    39    38    1
   186    38    37    1
