@<TRIPOS>MOLECULE
tmp/1xx4A02.pdb
 112 109 0 0 0
SMALL
GASTEIGER

@<TRIPOS>ATOM
      1  N        117.8850   38.9820   16.5480 N.3    64  LEU64      -0.1245
      2  CA       116.6150   38.2750   16.4610 C.3    64  LEU64       0.1561
      3  C        115.7680   38.6550   15.2550 C.2    64  LEU64       0.2260
      4  O        115.8190   39.7830   14.7720 O.2    64  LEU64      -0.2867
      5  CB       115.8090   38.4790   17.7490 C.3    64  LEU64       0.0270
      6  CG       116.4950   38.0140   19.0440 C.3    64  LEU64       0.0019
      7  CD1      115.5050   38.0530   20.2010 C.3    64  LEU64       0.0001
      8  CD2      117.0350   36.5900   18.8670 C.3    64  LEU64       0.0001
      9  N        108.6130   36.5830   16.3740 N.3    69  MET69      -0.1245
     10  CA       107.8610   36.9790   17.5470 C.3    69  MET69       0.1570
     11  C        106.6820   37.9300   17.3240 C.2    69  MET69       0.2261
     12  O        106.3640   38.7500   18.1860 O.2    69  MET69      -0.2867
     13  CB       108.8200   37.5440   18.5940 C.3    69  MET69       0.0387
     14  CG       109.7780   38.5890   18.0850 C.3    69  MET69       0.0595
     15  SD       111.0720   38.9360   19.3010 S.3    69  MET69      -0.1393
     16  CE       112.4940   39.1020   18.2240 C.3    69  MET69       0.0692
     17  N        112.0910   32.0760   23.0390 N.3    81  TRP81      -0.1241
     18  CA       112.9310   32.6870   24.0530 C.3    81  TRP81       0.1605
     19  C        113.8700   31.6930   24.7210 C.2    81  TRP81       0.2264
     20  O        114.9980   32.0360   25.0720 O.2    81  TRP81      -0.2867
     21  CB       112.0870   33.3760   25.1180 C.3    81  TRP81       0.0550
     22  CG       112.9020   34.3580   25.8930 C.ar   81  TRP81       0.0003
     23  CD1      113.2440   34.2880   27.2180 C.ar   81  TRP81       0.0946
     24  CD2      113.5390   35.5290   25.3750 C.ar   81  TRP81       0.0152
     25  NE1      114.0550   35.3440   27.5510 N.ar   81  TRP81      -0.2442
     26  CE2      114.2530   36.1220   26.4390 C.ar   81  TRP81       0.0810
     27  CE3      113.5790   36.1370   24.1110 C.ar   81  TRP81       0.0012
     28  CZ2      115.0020   37.2970   26.2770 C.ar   81  TRP81       0.0191
     29  CZ3      114.3230   37.3060   23.9490 C.ar   81  TRP81       0.0001
     30  CH2      115.0220   37.8700   25.0270 C.ar   81  TRP81       0.0015
     31  N        118.1040   47.8750   21.2480 N.3   134  GLU134     -0.1245
     32  CA       116.7510   47.3910   21.4880 C.3   134  GLU134      0.1567
     33  C        115.7620   48.5120   21.7740 C.2   134  GLU134      0.2260
     34  O        114.6940   48.5590   21.1790 O.2   134  GLU134     -0.2867
     35  CB       116.7250   46.3950   22.6560 C.3   134  GLU134      0.0388
     36  CG       117.1150   44.9760   22.2750 C.3   134  GLU134      0.1160
     37  CD       118.6140   44.7900   22.1380 C.2   134  GLU134      0.3649
     38  OE1      119.3110   45.7740   21.8080 O.co2 134  GLU134     -0.2457
     39  OE2      119.0910   43.6510   22.3490 O.co2 134  GLU134     -0.2457
     40  N        111.8030   47.7460   22.2600 N.3   139  ILE139     -0.1231
     41  CA       112.1560   46.5520   23.0150 C.3   139  ILE139      0.1692
     42  C        113.1900   46.8940   24.0950 C.2   139  ILE139      0.2592
     43  O        113.5990   48.0450   24.2260 O.2   139  ILE139     -0.2718
     44  CB       112.7170   45.4960   22.0250 C.3   139  ILE139      0.0266
     45  CG1      111.5710   44.9300   21.1970 C.3   139  ILE139      0.0019
     46  CG2      113.4230   44.3720   22.7410 C.3   139  ILE139      0.0020
     47  CD1      110.4960   44.2490   22.0360 C.3   139  ILE139      0.0001
     48  N        113.5870   45.9020   24.8850 N.am  140  VAL140     -0.1966
     49  CA       114.6000   46.1040   25.9150 C.3   140  VAL140      0.1727
     50  C        115.4740   44.8560   26.0650 C.2   140  VAL140      0.2616
     51  O        114.9820   43.7320   26.0710 O.2   140  VAL140     -0.2715
     52  CB       113.9580   46.4880   27.2820 C.3   140  VAL140      0.0290
     53  CG1      112.6560   45.7420   27.4830 C.3   140  VAL140      0.0023
     54  CG2      114.9260   46.1930   28.4200 C.3   140  VAL140      0.0023
     55  N        116.7800   45.0600   26.1620 N.am  141  ALA141     -0.1964
     56  CA       117.7150   43.9520   26.3180 C.3   141  ALA141      0.1713
     57  C        117.3950   43.1740   27.5990 C.2   141  ALA141      0.2458
     58  O        117.0770   43.7710   28.6250 O.2   141  ALA141     -0.2730
     59  CB       119.1450   44.4940   26.3760 C.3   141  ALA141      0.0333
     60  N        117.4740   41.8300   27.5540 N.am  142  PRO142     -0.2727
     61  CA       117.1860   41.0110   28.7380 C.3   142  PRO142      0.1402
     62  C        118.2140   41.2800   29.8280 C.2   142  PRO142      0.2269
     63  O        119.3600   41.6090   29.5270 O.2   142  PRO142     -0.2865
     64  CB       117.2380   39.5820   28.1910 C.3   142  PRO142      0.0296
     65  CG       118.2290   39.6790   27.0930 C.3   142  PRO142      0.0237
     66  CD       117.8500   40.9800   26.4130 C.3   142  PRO142      0.0939
     67  N        112.1140   34.0430   33.4150 N.3   229  ASP229     -0.1239
     68  CA       112.5580   34.9260   32.3530 C.3   229  ASP229      0.1674
     69  C        111.7410   34.6250   31.1110 C.2   229  ASP229      0.2266
     70  O        111.3560   35.5270   30.3730 O.2   229  ASP229     -0.2867
     71  CB       114.0490   34.7230   32.0740 C.3   229  ASP229      0.1410
     72  CG       114.6050   35.7520   31.1090 C.2   229  ASP229      0.3668
     73  OD1      114.4240   36.9610   31.3640 O.co2 229  ASP229     -0.2456
     74  OD2      115.2220   35.3580   30.1000 O.co2 229  ASP229     -0.2456
     75  N        108.2570   36.0580   31.5460 N.3   232  ASN232     -0.1225
     76  CA       108.2690   37.5050   31.3930 C.3   232  ASN232      0.1785
     77  C        108.3580   37.9340   29.9370 C.2   232  ASN232      0.2597
     78  O        107.6790   38.8730   29.5180 O.2   232  ASN232     -0.2718
     79  CB       109.4170   38.1110   32.1940 C.3   232  ASN232      0.1169
     80  CG       109.2250   37.9420   33.6900 C.2   232  ASN232      0.2627
     81  OD1      108.1760   37.4670   34.1450 O.2   232  ASN232     -0.2716
     82  ND2      110.2350   38.3360   34.4690 N.am  232  ASN232     -0.0877
     83  N        109.1930   37.2580   29.1570 N.am  233  PHE233     -0.1976
     84  CA       109.3080   37.6050   27.7480 C.3   233  PHE233      0.1639
     85  C        107.9680   37.3520   27.0700 C.2   233  PHE233      0.2290
     86  O        107.4960   38.1760   26.2900 O.2   233  PHE233     -0.2864
     87  CB       110.3970   36.7790   27.0610 C.3   233  PHE233      0.0560
     88  CG       110.3060   36.7910   25.5580 C.ar  233  PHE233     -0.0200
     89  CD1      109.6580   35.7590   24.8780 C.ar  233  PHE233     -0.0042
     90  CD2      110.8430   37.8420   24.8200 C.ar  233  PHE233     -0.0042
     91  CE1      109.5470   35.7740   23.4830 C.ar  233  PHE233     -0.0003
     92  CE2      110.7380   37.8670   23.4300 C.ar  233  PHE233     -0.0003
     93  CZ       110.0890   36.8300   22.7600 C.ar  233  PHE233     -0.0000
     94  N        105.4010   40.1980   28.2500 N.3   236  PHE236     -0.1227
     95  CA       105.8110   41.4480   27.6200 C.3   236  PHE236      0.1736
     96  C        105.6400   41.4700   26.1070 C.2   236  PHE236      0.2595
     97  O        105.1370   42.4420   25.5550 O.2   236  PHE236     -0.2718
     98  CB       107.2710   41.7400   27.9920 C.3   236  PHE236      0.0547
     99  CG       107.9050   42.8480   27.1990 C.ar  236  PHE236     -0.0202
    100  CD1      108.3460   42.6290   25.8960 C.ar  236  PHE236     -0.0042
    101  CD2      108.1020   44.1010   27.7690 C.ar  236  PHE236     -0.0042
    102  CE1      108.9800   43.6420   25.1740 C.ar  236  PHE236     -0.0003
    103  CE2      108.7350   45.1190   27.0560 C.ar  236  PHE236     -0.0003
    104  CZ       109.1750   44.8840   25.7540 C.ar  236  PHE236     -0.0000
    105  N        106.0570   40.4040   25.4360 N.am  237  ILE237     -0.1980
    106  CA       105.9570   40.3480   23.9850 C.3   237  ILE237      0.1595
    107  C        104.5090   40.1950   23.5030 C.2   237  ILE237      0.2287
    108  O        104.1590   40.6580   22.4150 O.2   237  ILE237     -0.2864
    109  CB       106.8260   39.1890   23.4190 C.3   237  ILE237      0.0276
    110  CG1      107.1880   39.4690   21.9600 C.3   237  ILE237      0.0022
    111  CG2      106.0900   37.8620   23.5360 C.3   237  ILE237      0.0022
    112  CD1      108.1430   40.6290   21.7860 C.3   237  ILE237      0.0001
@<TRIPOS>BOND
     1     4     3    2
     2     3     2    1
     3     9    10    1
     4     2     1    1
     5     2     5    1
     6    11    10    1
     7    11    12    2
     8    10    13    1
     9     5     6    1
    10    14    13    1
    11    14    15    1
    12    16    15    1
    13     8     6    1
    14     6     7    1
    15    34    33    2
    16    45    44    1
    17    45    47    1
    18    31    32    1
    19    32    33    1
    20    32    35    1
    21   112   110    1
    22    38    37   ar
    23   110   109    1
    24    44    46    1
    25    44    41    1
    26    37    36    1
    27    37    39   ar
    28    40    41    1
    29    36    35    1
    30   108   107    2
    31    93    92   ar
    32    93    91   ar
    33    41    42    1
    34    17    18    1
    35   109   111    1
    36   109   106    1
    37    92    90   ar
    38    91    89   ar
    39   107   106    1
    40    29    27   ar
    41    29    30   ar
    42   106   105    1
    43    18    19    1
    44    18    21    1
    45    42    43    2
    46    42    48   am
    47    27    24   ar
    48    19    20    2
    49    90    88   ar
    50    89    88   ar
    51    48    49    1
    52    30    28   ar
    53    21    22    1
    54   102   104   ar
    55   102   100   ar
    56    24    22   ar
    57    24    26   ar
    58   105    96   am
    59    97    96    2
    60    88    87    1
    61   104   103   ar
    62    22    23   ar
    63   100    99   ar
    64    49    50    1
    65    49    52    1
    66    50    51    2
    67    50    55   am
    68    96    95    1
    69    55    56    1
    70    28    26   ar
    71    86    85    2
    72    56    59    1
    73    56    57    1
    74    66    65    1
    75    66    60    1
    76    26    25   ar
    77   103   101   ar
    78    87    84    1
    79    85    84    1
    80    65    64    1
    81    99   101   ar
    82    99    98    1
    83    23    25   ar
    84    52    53    1
    85    52    54    1
    86    60    57   am
    87    60    61    1
    88    57    58    2
    89    95    98    1
    90    95    94    1
    91    84    83    1
    92    64    61    1
    93    61    62    1
    94    83    77   am
    95    78    77    2
    96    63    62    2
    97    77    76    1
    98    74    72   ar
    99    70    69    2
   100    72    73   ar
   101    72    71    1
   102    69    68    1
   103    76    75    1
   104    76    79    1
   105    71    68    1
   106    79    80    1
   107    68    67    1
   108    80    81    2
   109    80    82   am
