@<TRIPOS>MOLECULE
tmp/1xx6A00.pdb
 94 91 0 0 0
SMALL
GASTEIGER

@<TRIPOS>ATOM
      1  N         10.9280   22.8260   85.1330 N.3    16  TYR16      -0.1227
      2  CA        10.6770   24.2310   85.4570 C.3    16  TYR16       0.1736
      3  C         11.8760   25.1490   85.2140 C.2    16  TYR16       0.2596
      4  O         11.8500   26.3150   85.6060 O.2    16  TYR16      -0.2718
      5  CB        10.2240   24.3820   86.9250 C.3    16  TYR16       0.0548
      6  CG         9.0370   23.5210   87.3250 C.ar   16  TYR16      -0.0200
      7  CD1        7.7420   23.8500   86.9210 C.ar   16  TYR16      -0.0009
      8  CD2        9.2130   22.3790   88.1040 C.ar   16  TYR16      -0.0009
      9  CE1        6.6480   23.0560   87.2860 C.ar   16  TYR16       0.0417
     10  CE2        8.1320   21.5800   88.4760 C.ar   16  TYR16       0.0417
     11  CZ         6.8550   21.9240   88.0610 C.ar   16  TYR16       0.1957
     12  OH         5.7870   21.1210   88.4160 O.3    16  TYR16      -0.2866
     13  N         12.9200   24.6330   84.5740 N.am   17  SER17      -0.1938
     14  CA        14.1080   25.4400   84.2990 C.3    17  SER17       0.2055
     15  C         13.8190   26.4070   83.1520 C.2    17  SER17       0.2644
     16  O         14.5110   27.4150   82.9710 O.2    17  SER17      -0.2714
     17  CB        15.2970   24.5390   83.9550 C.3    17  SER17       0.2130
     18  OG        15.0410   23.7620   82.7990 O.3    17  SER17      -0.2179
     19  N         12.7800   26.0950   82.3850 N.am   18  GLY18      -0.1939
     20  CA        12.3850   26.9390   81.2750 C.3    18  GLY18       0.2014
     21  C         12.7400   26.4210   79.8920 C.2    18  GLY18       0.2639
     22  O         12.8620   27.2070   78.9600 O.2    18  GLY18      -0.2714
     23  N         12.8970   25.1060   79.7560 N.am   19  LYS19      -0.1963
     24  CA        13.2330   24.5010   78.4760 C.3    19  LYS19       0.1728
     25  C         12.1590   24.7300   77.3990 C.2    19  LYS19       0.2617
     26  O         12.4850   25.0910   76.2720 O.2    19  LYS19      -0.2715
     27  CB        13.4900   22.9950   78.6460 C.3    19  LYS19       0.0311
     28  CG        14.6870   22.6660   79.5480 C.3    19  LYS19       0.0038
     29  CD        15.0110   21.1720   79.5970 C.3    19  LYS19       0.0206
     30  CE        13.8490   20.3400   80.1380 C.3    19  LYS19       0.1093
     31  NZ        13.4040   20.7960   81.4890 N.3    19  LYS19      -0.1314
     32  N         10.8850   24.5260   77.7500 N.am   20  SER20      -0.1936
     33  CA         9.7780   24.7180   76.8100 C.3    20  SER20       0.2055
     34  C          9.6330   26.1770   76.4120 C.2    20  SER20       0.2642
     35  O          9.4080   26.5010   75.2470 O.2    20  SER20      -0.2714
     36  CB         8.4610   24.2420   77.4260 C.3    20  SER20       0.2130
     37  OG         8.4840   22.8460   77.6340 O.3    20  SER20      -0.2179
     38  N          9.7460   27.0550   77.4000 N.am   21  GLU21      -0.1976
     39  CA         9.6480   28.4880   77.1740 C.3    21  GLU21       0.1602
     40  C         10.7270   28.9110   76.1710 C.2    21  GLU21       0.2287
     41  O         10.4480   29.6430   75.2260 O.2    21  GLU21      -0.2864
     42  CB         9.8180   29.2250   78.5100 C.3    21  GLU21       0.0415
     43  CG         9.9700   30.7400   78.4180 C.3    21  GLU21       0.1163
     44  CD        10.0590   31.3940   79.8010 C.2    21  GLU21       0.3649
     45  OE1       10.8610   30.9190   80.6380 O.co2  21  GLU21      -0.2457
     46  OE2        9.3310   32.3770   80.0510 O.co2  21  GLU21      -0.2457
     47  N          3.7220   22.9250   75.4280 N.3    47  VAL47      -0.1231
     48  CA         3.3100   23.9590   76.3690 C.3    47  VAL47       0.1692
     49  C          4.3030   24.2200   77.4930 C.2    47  VAL47       0.2593
     50  O          4.9720   23.3070   77.9710 O.2    47  VAL47      -0.2718
     51  CB         1.9470   23.6040   77.0010 C.3    47  VAL47       0.0266
     52  CG1        0.8510   23.6730   75.9510 C.3    47  VAL47       0.0020
     53  CG2        2.0040   22.2100   77.6020 C.3    47  VAL47       0.0020
     54  N          4.3840   25.4800   77.9130 N.am   48  SER48      -0.1938
     55  CA         5.2780   25.8900   78.9940 C.3    48  SER48       0.2055
     56  C          4.4860   26.1950   80.2640 C.2    48  SER48       0.2643
     57  O          3.4040   26.7800   80.2060 O.2    48  SER48      -0.2714
     58  CB         6.0780   27.1300   78.5780 C.3    48  SER48       0.2130
     59  OG         6.7800   27.6810   79.6800 O.3    48  SER48      -0.2179
     60  N          5.0350   25.8000   81.4090 N.am   49  HIS49      -0.1973
     61  CA         4.3880   26.0300   82.6990 C.3    49  HIS49       0.1656
     62  C          4.0870   27.5100   82.9380 C.2    49  HIS49       0.2291
     63  O          3.2730   27.8560   83.7990 O.2    49  HIS49      -0.2864
     64  CB         5.2760   25.5190   83.8400 C.3    49  HIS49       0.0771
     65  CG         5.3780   24.0270   83.9180 C.ar   49  HIS49       0.0820
     66  ND1        4.3230   23.2240   84.2970 N.ar   49  HIS49      -0.2267
     67  CD2        6.4240   23.1940   83.7020 C.ar   49  HIS49       0.1154
     68  CE1        4.7140   21.9620   84.3150 C.ar   49  HIS49       0.1986
     69  NE2        5.9850   21.9170   83.9590 N.ar   49  HIS49      -0.2212
     70  N         16.5110   26.3750   87.2180 N.3   131  ALA131     -0.1231
     71  CA        15.2080   26.7850   87.7190 C.3   131  ALA131      0.1694
     72  C         15.5730   27.4680   89.0400 C.2   131  ALA131      0.2591
     73  O         16.7470   27.7420   89.2890 O.2   131  ALA131     -0.2718
     74  CB        14.3230   25.5660   87.9720 C.3   131  ALA131      0.0304
     75  N         14.5840   27.7480   89.8800 N.am  132  ILE132     -0.1980
     76  CA        14.8480   28.3590   91.1780 C.3   132  ILE132      0.1595
     77  C         14.4630   27.3080   92.2210 C.2   132  ILE132      0.2287
     78  O         13.3890   26.7100   92.1270 O.2   132  ILE132     -0.2864
     79  CB        13.9900   29.6310   91.3930 C.3   132  ILE132      0.0276
     80  CG1       14.4010   30.7220   90.3970 C.3   132  ILE132      0.0022
     81  CG2       14.1320   30.1160   92.8310 C.3   132  ILE132      0.0022
     82  CD1       15.8200   31.2350   90.5810 C.3   132  ILE132      0.0001
     83  N         12.8400   25.7270   95.2050 N.3   134  VAL134     -0.1245
     84  CA        11.6770   26.0730   96.0290 C.3   134  VAL134      0.1561
     85  C         11.9890   25.9950   97.5200 C.2   134  VAL134      0.2260
     86  O         11.1690   26.3690   98.3580 O.2   134  VAL134     -0.2867
     87  CB        10.4650   25.1500   95.7410 C.3   134  VAL134      0.0252
     88  CG1       10.1390   25.1550   94.2570 C.3   134  VAL134      0.0019
     89  CG2       10.7590   23.7440   96.2240 C.3   134  VAL134      0.0019
     90  N         11.6850   21.8070   91.4470 N.3   163  ALA163     -0.1245
     91  CA        13.1010   22.0240   91.1990 C.3   163  ALA163      0.1562
     92  C         13.8590   22.3720   92.4670 C.2   163  ALA163      0.2260
     93  O         13.3790   23.1410   93.3010 O.2   163  ALA163     -0.2867
     94  CB        13.2830   23.1220   90.1660 C.3   163  ALA163      0.0290
@<TRIPOS>BOND
     1    41    40    2
     2    35    34    2
     3    47    48    1
     4    52    51    1
     5    40    39    1
     6    26    25    2
     7    48    51    1
     8    48    49    1
     9    34    33    1
    10    34    38   am
    11    33    36    1
    12    33    32    1
    13    51    53    1
    14    39    38    1
    15    39    42    1
    16    25    32   am
    17    25    24    1
    18    36    37    1
    19    49    54   am
    20    49    50    2
    21    54    55    1
    22    43    42    1
    23    43    44    1
    24    24    27    1
    25    24    23    1
    26    58    55    1
    27    58    59    1
    28    27    28    1
    29    22    21    2
    30    55    56    1
    31    28    29    1
    32    29    30    1
    33    23    21   am
    34    44    46   ar
    35    44    45   ar
    36    21    20    1
    37    30    31    1
    38    57    56    2
    39    56    60   am
    40    20    19    1
    41    60    61    1
    42    19    15   am
    43    61    62    1
    44    61    64    1
    45    18    17    1
    46    62    63    2
    47    16    15    2
    48    15    14    1
    49    67    65   ar
    50    67    69   ar
    51    64    65    1
    52    65    66   ar
    53    17    14    1
    54    69    68   ar
    55    66    68   ar
    56    14    13    1
    57    13     3   am
    58     1     2    1
    59     3     2    1
    60     3     4    2
    61     2     5    1
    62     7     9   ar
    63     7     6   ar
    64     5     6    1
    65    70    71    1
    66     9    11   ar
    67     6     8   ar
    68    71    74    1
    69    71    72    1
    70    11    12    1
    71    11    10   ar
    72     8    10   ar
    73    72    73    2
    74    72    75   am
    75    75    76    1
    76    94    91    1
    77    80    82    1
    78    80    79    1
    79    76    79    1
    80    76    77    1
    81    91    90    1
    82    91    92    1
    83    79    81    1
    84    78    77    2
    85    92    93    2
    86    88    87    1
    87    83    84    1
    88    87    84    1
    89    87    89    1
    90    84    85    1
    91    85    86    2
