@<TRIPOS>MOLECULE
tmp/1xxpA00.pdb
 127 121 0 0 0
SMALL
GASTEIGER

@<TRIPOS>ATOM
      1  N         -4.8060   15.9210   33.1830 N.3    97  ARG97      -0.1245
      2  CA        -6.0440   15.8920   33.9350 C.3    97  ARG97       0.1563
      3  C         -6.7140   17.2330   33.6960 C.2    97  ARG97       0.2260
      4  O         -7.1300   17.9000   34.6400 O.2    97  ARG97      -0.2867
      5  CB        -5.7430   15.7200   35.4110 C.3    97  ARG97       0.0307
      6  CG        -5.8600   14.3110   35.9030 C.3    97  ARG97       0.0489
      7  CD        -5.0700   13.3470   35.0760 C.3    97  ARG97       0.2205
      8  NE        -5.1830   11.9880   35.5960 N.pl3  97  ARG97      -0.0865
      9  CZ        -4.7090   10.9050   34.9840 C.cat  97  ARG97       0.5346
     10  NH1       -4.0830   10.9980   33.8160 N.pl3  97  ARG97       0.1354
     11  NH2       -4.8540    9.7180   35.5430 N.pl3  97  ARG97       0.1354
     12  N        -13.7180   12.5490   25.6820 N.3   154  THR154     -0.1218
     13  CA       -13.4350   11.4100   26.5310 C.3   154  THR154      0.1862
     14  C        -12.2900   10.6390   25.9010 C.2   154  THR154      0.2287
     15  O        -12.5140    9.7830   25.0520 O.2   154  THR154     -0.2866
     16  CB       -14.6580   10.5040   26.6340 C.3   154  THR154      0.1770
     17  OG1      -15.8350   11.3090   26.7650 O.3   154  THR154     -0.2211
     18  CG2      -14.5300    9.5820   27.8300 C.3   154  THR154      0.0375
     19  N         -9.8380    7.9090   25.6220 N.3   156  ARG156     -0.1245
     20  CA        -9.6830    6.5370   26.1030 C.3   156  ARG156      0.1563
     21  C         -8.5690    5.7910   25.3690 C.2   156  ARG156      0.2260
     22  O         -8.6230    5.6260   24.1580 O.2   156  ARG156     -0.2867
     23  CB       -11.0240    5.8140   25.9300 C.3   156  ARG156      0.0307
     24  CG       -11.0950    4.3850   26.4470 C.3   156  ARG156      0.0489
     25  CD       -12.4750    4.1540   27.0540 C.3   156  ARG156      0.2205
     26  NE       -13.4750    5.0110   26.4160 N.pl3 156  ARG156     -0.0865
     27  CZ       -14.6940    5.2310   26.8960 C.cat 156  ARG156      0.5346
     28  NH1      -15.5280    6.0280   26.2370 N.pl3 156  ARG156      0.1354
     29  NH2      -15.0750    4.6610   28.0360 N.pl3 156  ARG156      0.1354
     30  N         -4.3290    2.9410   29.9090 N.3   160  GLN160     -0.1231
     31  CA        -4.3270    4.2790   30.4970 C.3   160  GLN160      0.1698
     32  C         -5.6990    4.6300   31.0770 C.2   160  GLN160      0.2592
     33  O         -6.7240    4.0650   30.6830 O.2   160  GLN160     -0.2718
     34  CB        -3.9620    5.3240   29.4360 C.3   160  GLN160      0.0381
     35  CG        -2.6060    5.1340   28.7690 C.3   160  GLN160      0.0905
     36  CD        -1.4340    5.3200   29.7220 C.2   160  GLN160      0.2608
     37  OE1       -1.2420    6.3940   30.3010 O.2   160  GLN160     -0.2717
     38  NE2       -0.6410    4.2670   29.8870 N.am  160  GLN160     -0.0878
     39  N         -5.7080    5.5820   32.0050 N.am  161  LYS161     -0.1966
     40  CA        -6.9370    6.0330   32.6470 C.3   161  LYS161      0.1728
     41  C         -7.8050    6.7480   31.6210 C.2   161  LYS161      0.2617
     42  O         -7.2850    7.3870   30.7100 O.2   161  LYS161     -0.2715
     43  CB        -6.6120    7.0100   33.7840 C.3   161  LYS161      0.0311
     44  CG        -5.8870    6.4200   34.9860 C.3   161  LYS161      0.0038
     45  CD        -6.8310    5.6750   35.9010 C.3   161  LYS161      0.0206
     46  CE        -6.1180    5.2630   37.1650 C.3   161  LYS161      0.1093
     47  NZ        -5.4930    6.4370   37.8360 N.3   161  LYS161     -0.1314
     48  N         -9.1220    6.6390   31.7670 N.am  162  THR162     -0.1937
     49  CA       -10.0460    7.3110   30.8530 C.3   162  THR162      0.2028
     50  C        -10.2930    8.7100   31.4180 C.2   162  THR162      0.2642
     51  O        -10.7210    8.8450   32.5610 O.2   162  THR162     -0.2714
     52  CB       -11.3910    6.5580   30.7450 C.3   162  THR162      0.1808
     53  OG1      -11.1540    5.2290   30.2730 O.3   162  THR162     -0.2208
     54  CG2      -12.3250    7.2680   29.7770 C.3   162  THR162      0.0379
     55  N        -10.0170    9.7380   30.6190 N.am  163  ILE163     -0.1963
     56  CA       -10.1810   11.1210   31.0560 C.3   163  ILE163      0.1727
     57  C        -11.2860   11.8790   30.3130 C.2   163  ILE163      0.2616
     58  O        -11.3460   11.8430   29.0880 O.2   163  ILE163     -0.2715
     59  CB        -8.8560   11.9250   30.8750 C.3   163  ILE163      0.0290
     60  CG1       -7.6970   11.2010   31.5530 C.3   163  ILE163      0.0022
     61  CG2       -9.0020   13.3350   31.4500 C.3   163  ILE163      0.0023
     62  CD1       -7.8430   11.0480   33.0520 C.3   163  ILE163      0.0001
     63  N        -12.1580   12.5530   31.0610 N.am  164  SER164     -0.1950
     64  CA       -13.2180   13.3550   30.4700 C.3   164  SER164      0.1924
     65  C        -12.6610   14.7670   30.4720 C.2   164  SER164      0.2314
     66  O        -12.0310   15.1860   31.4470 O.2   164  SER164     -0.2863
     67  CB       -14.4800   13.3280   31.3200 C.3   164  SER164      0.2116
     68  OG       -15.0410   12.0430   31.3580 O.3   164  SER164     -0.2180
     69  N        -14.5600   20.8950   37.6970 N.3   198  LYS198     -0.1245
     70  CA       -13.8420   19.6810   37.3070 C.3   198  LYS198      0.1561
     71  C        -12.7040   19.3380   38.2490 C.2   198  LYS198      0.2260
     72  O        -12.5230   18.1750   38.6160 O.2   198  LYS198     -0.2867
     73  CB       -13.2900   19.8380   35.8960 C.3   198  LYS198      0.0271
     74  CG       -13.7390   18.7630   34.9370 C.3   198  LYS198      0.0035
     75  CD       -13.2360   17.3870   35.3020 C.3   198  LYS198      0.0206
     76  CE       -13.6340   16.4110   34.2180 C.3   198  LYS198      0.1093
     77  NZ       -13.0630   15.0700   34.4450 N.3   198  LYS198     -0.1314
     78  N        -13.9090   17.6330   41.3760 N.3   201  MET201     -0.1230
     79  CA       -14.2130   16.2280   41.1580 C.3   201  MET201      0.1702
     80  C        -12.9380   15.4010   41.2850 C.2   201  MET201      0.2592
     81  O        -12.9600   14.2840   41.8070 O.2   201  MET201     -0.2718
     82  CB       -14.8390   16.0570   39.7740 C.3   201  MET201      0.0401
     83  CG       -15.1780   14.6240   39.4240 C.3   201  MET201      0.0596
     84  SD       -13.7590   13.6930   38.8380 S.3   201  MET201     -0.1393
     85  CE       -13.8700   14.0790   37.0980 C.3   201  MET201      0.0692
     86  N        -11.8260   15.9580   40.8180 N.am  202  TYR202     -0.1976
     87  CA       -10.5620   15.2590   40.9040 C.3   202  TYR202      0.1639
     88  C        -10.0830   15.1660   42.3350 C.2   202  TYR202      0.2290
     89  O         -9.5700   14.1230   42.7320 O.2   202  TYR202     -0.2864
     90  CB        -9.5110   15.9440   40.0390 C.3   202  TYR202      0.0560
     91  CG        -9.5060   15.4470   38.6070 C.ar  202  TYR202     -0.0198
     92  CD1       -9.5080   16.3390   37.5310 C.ar  202  TYR202     -0.0009
     93  CD2       -9.5190   14.0820   38.3250 C.ar  202  TYR202     -0.0009
     94  CE1       -9.5280   15.8800   36.2200 C.ar  202  TYR202      0.0417
     95  CE2       -9.5390   13.6200   37.0210 C.ar  202  TYR202      0.0417
     96  CZ        -9.5450   14.5220   35.9790 C.ar  202  TYR202      0.1957
     97  OH        -9.5730   14.0700   34.6900 O.3   202  TYR202     -0.2866
     98  N        -12.0050   12.6200   44.3190 N.3   205  LYS205     -0.1231
     99  CA       -11.6020   11.2530   44.0140 C.3   205  LYS205      0.1693
    100  C        -10.1940   10.8880   44.4310 C.2   205  LYS205      0.2593
    101  O         -9.7450    9.7700   44.1810 O.2   205  LYS205     -0.2718
    102  CB       -11.7670   10.9780   42.5300 C.3   205  LYS205      0.0285
    103  CG       -13.2030   11.0000   42.1210 C.3   205  LYS205      0.0035
    104  CD       -13.4620   10.1240   40.9390 C.3   205  LYS205      0.0206
    105  CE       -14.9450   10.0910   40.7030 C.3   205  LYS205      0.1093
    106  NZ       -15.3150    9.2250   39.5600 N.3   205  LYS205     -0.1314
    107  N         -9.5000   11.8350   45.0560 N.am  206  GLY206     -0.1942
    108  CA        -8.1430   11.5970   45.5240 C.3   206  GLY206      0.2014
    109  C         -7.0420   11.4540   44.4880 C.2   206  GLY206      0.2640
    110  O         -6.0480   10.7890   44.7630 O.2   206  GLY206     -0.2714
    111  N         -7.1960   12.0660   43.3150 N.am  207  SER207     -0.1935
    112  CA        -6.1630   11.9620   42.2940 C.3   207  SER207      0.2055
    113  C         -4.8740   12.6350   42.7920 C.2   207  SER207      0.2644
    114  O         -4.9140   13.5500   43.6170 O.2   207  SER207     -0.2714
    115  CB        -6.6260   12.5930   40.9730 C.3   207  SER207      0.2130
    116  OG        -6.8270   13.9890   41.0810 O.3   207  SER207     -0.2179
    117  N         -3.7340   12.1600   42.3040 N.am  208  SER208     -0.1935
    118  CA        -2.4550   12.6960   42.7150 C.3   208  SER208      0.2055
    119  C         -2.0450   13.8630   41.8400 C.2   208  SER208      0.2642
    120  O         -0.9070   14.3270   41.8980 O.2   208  SER208     -0.2714
    121  CB        -1.3830   11.6130   42.6520 C.3   208  SER208      0.2130
    122  OG        -1.1250   11.2410   41.3170 O.3   208  SER208     -0.2179
    123  N         -2.9680   14.3430   41.0250 N.am  209  ALA209     -0.1977
    124  CA        -2.6540   15.4610   40.1600 C.3   209  ALA209      0.1597
    125  C         -2.8100   16.7460   40.9520 C.2   209  ALA209      0.2287
    126  O         -2.3470   17.8030   40.5260 O.2   209  ALA209     -0.2864
    127  CB        -3.5800   15.4690   38.9500 C.3   209  ALA209      0.0319
@<TRIPOS>BOND
     1    22    21    2
     2    15    14    2
     3    21    20    1
     4    19    20    1
     5    12    13    1
     6    14    13    1
     7    23    20    1
     8    23    24    1
     9    28    27    1
    10    26    27    2
    11    26    25    1
    12    24    25    1
    13    13    16    1
    14    16    17    1
    15    16    18    1
    16    27    29    1
    17    35    34    1
    18    35    36    1
    19    58    57    2
    20    34    31    1
    21    36    38   am
    22    36    37    2
    23    54    52    1
    24    30    31    1
    25    53    52    1
    26    57    56    1
    27    57    63   am
    28    64    65    1
    29    64    63    1
    30    64    67    1
    31    65    66    2
    32    31    32    1
    33    55    56    1
    34    55    50   am
    35    33    32    2
    36    42    41    2
    37    52    49    1
    38    49    50    1
    39    49    48    1
    40    59    56    1
    41    59    61    1
    42    59    60    1
    43    32    39   am
    44    67    68    1
    45    50    51    2
    46    60    62    1
    47    41    48   am
    48    41    40    1
    49    39    40    1
    50    40    43    1
    51     1     2    1
    52     3     2    1
    53     3     4    2
    54    43    44    1
    55    10     9    1
    56     2     5    1
    57    76    77    1
    58    76    75    1
    59    97    96    1
    60    74    75    1
    61    74    73    1
    62     9    11    1
    63     9     8    2
    64    44    45    1
    65     7     8    1
    66     7     6    1
    67     5     6    1
    68    73    70    1
    69    45    46    1
    70    96    94   ar
    71    96    95   ar
    72    94    92   ar
    73    95    93   ar
    74    85    84    1
    75    46    47    1
    76    70    69    1
    77    70    71    1
    78    92    91   ar
    79    71    72    2
    80    93    91   ar
    81    91    90    1
    82    84    83    1
    83   127   124    1
    84    83    82    1
    85   106   105    1
    86    82    79    1
    87    90    87    1
    88   124   125    1
    89   124   123    1
    90   126   125    2
    91   105   104    1
    92    86    87    1
    93    86    80   am
    94    87    88    1
    95   104   103    1
    96   115   116    1
    97   115   112    1
    98   123   119   am
    99    79    80    1
   100    79    78    1
   101    80    81    2
   102   122   121    1
   103   119   120    2
   104   119   118    1
   105   103   102    1
   106   112   113    1
   107   112   111    1
   108   117   118    1
   109   117   113   am
   110    88    89    2
   111   102    99    1
   112   121   118    1
   113   113   114    2
   114   111   109   am
   115    99    98    1
   116    99   100    1
   117   101   100    2
   118   100   107   am
   119   109   110    2
   120   109   108    1
   121   107   108    1
