@<TRIPOS>MOLECULE
tmp/1xxpA01.pdb
 118 112 0 0 0
SMALL
GASTEIGER

@<TRIPOS>ATOM
      1  N          3.1970   27.8920   12.1710 N.3    48  PHE48      -0.1241
      2  CA         3.6760   29.1070   11.5090 C.3    48  PHE48       0.1605
      3  C          5.1700   29.2470   11.7540 C.2    48  PHE48       0.2264
      4  O          5.6460   29.0230   12.8630 O.2    48  PHE48      -0.2867
      5  CB         2.9550   30.3470   12.0380 C.3    48  PHE48       0.0534
      6  CG         1.4670   30.3080   11.8450 C.ar   48  PHE48      -0.0203
      7  CD1        0.6220   29.9950   12.9030 C.ar   48  PHE48      -0.0042
      8  CD2        0.9090   30.5750   10.6030 C.ar   48  PHE48      -0.0042
      9  CE1       -0.7570   29.9530   12.7290 C.ar   48  PHE48      -0.0003
     10  CE2       -0.4690   30.5350   10.4160 C.ar   48  PHE48      -0.0003
     11  CZ        -1.3030   30.2240   11.4830 C.ar   48  PHE48      -0.0000
     12  N          7.0710   31.8890   11.9350 N.3    50  ASP50      -0.1225
     13  CA         7.3390   32.9710   12.8780 C.3    50  ASP50       0.1805
     14  C          6.7600   32.8340   14.2970 C.2    50  ASP50       0.2597
     15  O          7.1440   33.5930   15.1970 O.2    50  ASP50      -0.2718
     16  CB         6.8580   34.2970   12.2750 C.3    50  ASP50       0.1424
     17  CG         5.5210   34.1630   11.5350 C.2    50  ASP50       0.3668
     18  OD1        4.6510   33.3680   11.9740 O.co2  50  ASP50      -0.2456
     19  OD2        5.3410   34.8710   10.5170 O.co2  50  ASP50      -0.2456
     20  N          5.8310   31.8980   14.4980 N.am   51  ILE51      -0.1980
     21  CA         5.2300   31.6920   15.8170 C.3    51  ILE51       0.1595
     22  C          5.8450   30.4670   16.4850 C.2    51  ILE51       0.2287
     23  O          5.2490   29.3950   16.5010 O.2    51  ILE51      -0.2864
     24  CB         3.6990   31.4860   15.7260 C.3    51  ILE51       0.0276
     25  CG1        3.0390   32.6630   14.9970 C.3    51  ILE51       0.0022
     26  CG2        3.1160   31.3350   17.1200 C.3    51  ILE51       0.0022
     27  CD1        3.1920   33.9920   15.6760 C.3    51  ILE51       0.0001
     28  N        -10.5870   36.3260   13.3550 N.3   175  ASP175     -0.1225
     29  CA        -9.1380   36.2060   13.4640 C.3   175  ASP175      0.1805
     30  C         -8.5610   37.6130   13.5550 C.2   175  ASP175      0.2597
     31  O         -9.1220   38.5540   12.9930 O.2   175  ASP175     -0.2718
     32  CB        -8.5760   35.4810   12.2240 C.3   175  ASP175      0.1424
     33  CG        -7.1840   34.8890   12.4550 C.2   175  ASP175      0.3668
     34  OD1       -6.5110   35.3070   13.4280 O.co2 175  ASP175     -0.2456
     35  OD2       -6.7620   34.0140   11.6540 O.co2 175  ASP175     -0.2456
     36  N         -7.4560   37.7550   14.2790 N.am  176  GLN176     -0.1979
     37  CA        -6.8040   39.0480   14.4100 C.3   176  GLN176      0.1601
     38  C         -7.7230   40.1050   15.0150 C.2   176  GLN176      0.2287
     39  O         -7.4470   41.2950   14.8770 O.2   176  GLN176     -0.2864
     40  CB        -6.3480   39.5360   13.0360 C.3   176  GLN176      0.0394
     41  CG        -5.6750   38.4830   12.1830 C.3   176  GLN176      0.0908
     42  CD        -4.2330   38.3010   12.5430 C.2   176  GLN176      0.2608
     43  OE1       -3.4340   39.2310   12.4340 O.2   176  GLN176     -0.2717
     44  NE2       -3.8800   37.1030   12.9730 N.am  176  GLN176     -0.0878
     45  N         -5.9380   29.0370   20.3580 N.3   222  SER222     -0.1202
     46  CA        -6.7490   29.6680   19.3210 C.3   222  SER222      0.2020
     47  C         -6.2940   29.0030   18.0310 C.2   222  SER222      0.2619
     48  O         -6.5490   27.8160   17.8190 O.2   222  SER222     -0.2717
     49  CB        -6.4710   31.1670   19.2720 C.3   222  SER222      0.2103
     50  OG        -5.0760   31.4230   19.2720 O.3   222  SER222     -0.2182
     51  N         -5.6170   29.7500   17.1680 N.am  223  ARG223     -0.1965
     52  CA        -5.0990   29.1690   15.9410 C.3   223  ARG223      0.1729
     53  C         -3.5690   29.1210   16.0760 C.2   223  ARG223      0.2616
     54  O         -2.9640   28.0430   16.0410 O.2   223  ARG223     -0.2715
     55  CB        -5.5210   29.9960   14.7230 C.3   223  ARG223      0.0348
     56  CG        -5.1160   29.3570   13.4120 C.3   223  ARG223      0.0492
     57  CD        -5.5300   30.1900   12.2320 C.3   223  ARG223      0.2205
     58  NE        -4.8910   29.7060   11.0200 N.pl3 223  ARG223     -0.0865
     59  CZ        -4.8740   30.3730    9.8730 C.cat 223  ARG223      0.5346
     60  NH1       -5.4660   31.5590    9.7870 N.pl3 223  ARG223      0.1354
     61  NH2       -4.2540   29.8590    8.8150 N.pl3 223  ARG223      0.1354
     62  N         -2.9470   30.2830   16.2500 N.am  224  ALA224     -0.1963
     63  CA        -1.4980   30.3480   16.4160 C.3   224  ALA224      0.1728
     64  C         -1.1980   30.2460   17.9000 C.2   224  ALA224      0.2617
     65  O         -0.1200   29.8050   18.2930 O.2   224  ALA224     -0.2715
     66  CB        -0.9590   31.6580   15.8590 C.3   224  ALA224      0.0334
     67  N         -2.1720   30.6590   18.7110 N.am  225  GLY225     -0.1940
     68  CA        -2.0390   30.6210   20.1590 C.3   225  GLY225      0.2014
     69  C         -1.2380   31.7660   20.7670 C.2   225  GLY225      0.2639
     70  O         -0.5490   31.5760   21.7700 O.2   225  GLY225     -0.2714
     71  N         -1.3340   32.9550   20.1770 N.am  226  VAL226     -0.1963
     72  CA        -0.5940   34.1040   20.6720 C.3   226  VAL226      0.1727
     73  C         -1.4320   35.3730   20.7580 C.2   226  VAL226      0.2617
     74  O         -1.1040   36.2830   21.5190 O.2   226  VAL226     -0.2715
     75  CB         0.6480   34.3840   19.7990 C.3   226  VAL226      0.0290
     76  CG1        1.6830   33.2920   19.9990 C.3   226  VAL226      0.0023
     77  CG2        0.2440   34.4770   18.3420 C.3   226  VAL226      0.0023
     78  N         -2.5110   35.4310   19.9830 N.am  227  GLY227     -0.1940
     79  CA        -3.3880   36.5920   19.9990 C.3   227  GLY227      0.2014
     80  C         -4.6110   36.4380   20.8980 C.2   227  GLY227      0.2638
     81  O         -4.6390   36.9290   22.0290 O.2   227  GLY227     -0.2714
     82  N         -5.6330   35.7540   20.3950 N.am  228  ARG228     -0.1977
     83  CA        -6.8670   35.5240   21.1460 C.3   228  ARG228      0.1597
     84  C         -6.6230   34.7050   22.4160 C.2   228  ARG228      0.2287
     85  O         -7.3490   34.8410   23.3950 O.2   228  ARG228     -0.2864
     86  CB        -7.8850   34.8100   20.2490 C.3   228  ARG228      0.0334
     87  CG        -8.4190   35.6820   19.1220 C.3   228  ARG228      0.0492
     88  CD        -9.2900   34.9100   18.1360 C.3   228  ARG228      0.2205
     89  NE        -8.4820   34.1340   17.1970 N.pl3 228  ARG228     -0.0865
     90  CZ        -8.9530   33.5340   16.1100 C.cat 228  ARG228      0.5346
     91  NH1      -10.2400   33.6100   15.8050 N.pl3 228  ARG228      0.1354
     92  NH2       -8.1240   32.8650   15.3270 N.pl3 228  ARG228      0.1354
     93  N          5.2290   37.1150   20.9370 N.3   262  ILE262     -0.1245
     94  CA         4.0630   37.4510   20.1010 C.3   262  ILE262      0.1561
     95  C          2.7540   37.5330   20.8950 C.2   262  ILE262      0.2260
     96  O          1.7730   38.0970   20.4250 O.2   262  ILE262     -0.2867
     97  CB         3.8870   36.4200   18.9600 C.3   262  ILE262      0.0252
     98  CG1        5.0920   36.4800   18.0450 C.3   262  ILE262      0.0019
     99  CG2        2.6630   36.7580   18.1180 C.3   262  ILE262      0.0019
    100  CD1        5.2160   37.8300   17.3980 C.3   262  ILE262      0.0001
    101  N         -0.7890   39.7470   20.2770 N.3   265  GLN265     -0.1245
    102  CA        -0.3740   40.2040   18.9610 C.3   265  GLN265      0.1566
    103  C         -0.8570   41.6120   18.5960 C.2   265  GLN265      0.2260
    104  O         -0.0640   42.5560   18.5360 O.2   265  GLN265     -0.2867
    105  CB        -0.8620   39.1950   17.9150 C.3   265  GLN265      0.0367
    106  CG        -0.3870   39.4480   16.4940 C.3   265  GLN265      0.0905
    107  CD        -1.3940   38.9870   15.4550 C.2   265  GLN265      0.2608
    108  OE1       -1.9420   37.8920   15.5600 O.2   265  GLN265     -0.2717
    109  NE2       -1.6420   39.8230   14.4440 N.am  265  GLN265     -0.0878
    110  N         -6.1350   44.0760   21.1970 N.3   269  GLN269     -0.1245
    111  CA        -6.2100   43.0330   22.2140 C.3   269  GLN269      0.1566
    112  C         -5.5430   43.5070   23.5040 C.2   269  GLN269      0.2260
    113  O         -6.0160   43.2120   24.6010 O.2   269  GLN269     -0.2867
    114  CB        -5.5330   41.7550   21.7300 C.3   269  GLN269      0.0367
    115  CG        -6.1150   41.1800   20.4570 C.3   269  GLN269      0.0905
    116  CD        -5.3100   39.9990   19.9630 C.2   269  GLN269      0.2608
    117  OE1       -4.1090   40.1090   19.7240 O.2   269  GLN269     -0.2717
    118  NE2       -5.9640   38.8620   19.8130 N.am  269  GLN269     -0.0878
@<TRIPOS>BOND
     1    61    59    1
     2    60    59    1
     3    59    58    2
     4    10     8   ar
     5    10    11   ar
     6    19    17   ar
     7     8     6   ar
     8    58    57    1
     9    11     9   ar
    10     2     3    1
    11     2     5    1
    12     2     1    1
    13    17    18   ar
    14    17    16    1
    15    35    33   ar
    16     3     4    2
    17     6     5    1
    18     6     7   ar
    19    12    13    1
    20    41    42    1
    21    41    40    1
    22    32    33    1
    23    32    29    1
    24    57    56    1
    25    16    13    1
    26    43    42    2
    27    33    34   ar
    28    42    44   am
    29     9     7   ar
    30    13    14    1
    31    31    30    2
    32    40    37    1
    33    28    29    1
    34    56    55    1
    35    29    30    1
    36    30    36   am
    37    36    37    1
    38    14    20   am
    39    14    15    2
    40    37    38    1
    41   109   107   am
    42    20    21    1
    43    55    52    1
    44    39    38    2
    45    25    27    1
    46    25    24    1
    47    92    90    1
    48   107   108    2
    49   107   106    1
    50    24    21    1
    51    24    26    1
    52    91    90    1
    53    21    22    1
    54    66    63    1
    55    52    53    1
    56    52    51    1
    57    54    53    2
    58    53    62   am
    59    90    89    2
    60    62    63    1
    61    63    64    1
    62    22    23    2
    63   106   105    1
    64    51    47   am
    65    89    88    1
    66   100    98    1
    67    48    47    2
    68    64    65    2
    69    64    67   am
    70   105   102    1
    71    47    46    1
    72    98    97    1
    73    99    97    1
    74    88    87    1
    75    77    75    1
    76   104   103    2
    77   103   102    1
    78    67    68    1
    79    97    94    1
    80   102   101    1
    81    87    86    1
    82    49    50    1
    83    49    46    1
    84    46    45    1
    85   117   116    2
    86    75    76    1
    87    75    72    1
    88   118   116   am
    89   116   115    1
    90    78    79    1
    91    78    73   am
    92    79    80    1
    93    94    95    1
    94    94    93    1
    95    68    69    1
    96    71    72    1
    97    71    69   am
    98    86    83    1
    99    82    80   am
   100    82    83    1
   101    96    95    2
   102   115   114    1
   103    72    73    1
   104    73    74    2
   105    69    70    2
   106    80    81    2
   107    83    84    1
   108   110   111    1
   109   114   111    1
   110   111   112    1
   111    84    85    2
   112   112   113    2
