@<TRIPOS>MOLECULE
tmp/1xxrD00.pdb
 77 71 0 0 0
SMALL
GASTEIGER

@<TRIPOS>ATOM
      1  N          8.0010  -40.0770  -20.8940 N.3    19  GLY19      -0.1210
      2  CA         9.2030  -40.5350  -21.5710 C.3    19  GLY19       0.1956
      3  C          8.9420  -41.1270  -22.9450 C.2    19  GLY19       0.2612
      4  O          7.7990  -41.2040  -23.3920 O.2    19  GLY19      -0.2717
      5  N         10.0090  -41.5440  -23.6200 N.am   20  GLY20      -0.1942
      6  CA         9.8710  -42.1280  -24.9420 C.3    20  GLY20       0.2014
      7  C          9.4400  -41.1260  -25.9970 C.2    20  GLY20       0.2638
      8  O          9.5360  -39.9120  -25.7990 O.2    20  GLY20      -0.2714
      9  N          8.9550  -41.6330  -27.1250 N.am   21  ASN21      -0.1972
     10  CA         8.5160  -40.7700  -28.2120 C.3    21  ASN21       0.1688
     11  C          7.0440  -41.0170  -28.5310 C.2    21  ASN21       0.2292
     12  O          6.5780  -42.1570  -28.5290 O.2    21  ASN21      -0.2864
     13  CB         9.3750  -41.0220  -29.4520 C.3    21  ASN21       0.1181
     14  CG        10.8590  -40.9100  -29.1580 C.2    21  ASN21       0.2629
     15  OD1       11.3420  -39.8570  -28.7430 O.2    21  ASN21      -0.2716
     16  ND2       11.5890  -42.0010  -29.3640 N.am   21  ASN21      -0.0877
     17  N         15.3430  -48.8650  -15.9860 N.3    95  LEU95      -0.1245
     18  CA        15.3460  -47.9490  -17.1240 C.3    95  LEU95       0.1561
     19  C         16.1040  -46.6610  -16.8040 C.2    95  LEU95       0.2260
     20  O         16.4970  -45.9210  -17.7080 O.2    95  LEU95      -0.2867
     21  CB        13.9130  -47.6190  -17.5550 C.3    95  LEU95       0.0270
     22  CG        13.0890  -48.8010  -18.0770 C.3    95  LEU95       0.0019
     23  CD1       11.7280  -48.3000  -18.5450 C.3    95  LEU95       0.0001
     24  CD2       13.8240  -49.4850  -19.2210 C.3    95  LEU95       0.0001
     25  N         15.1170  -43.8020  -15.5650 N.3    97  THR97      -0.1218
     26  CA        14.4660  -42.5830  -16.0330 C.3    97  THR97       0.1862
     27  C         13.6780  -41.9140  -14.9150 C.2    97  THR97       0.2287
     28  O         13.4830  -40.6990  -14.9270 O.2    97  THR97      -0.2866
     29  CB        13.4740  -42.8650  -17.1780 C.3    97  THR97       0.1770
     30  OG1       12.4260  -43.7150  -16.6950 O.3    97  THR97      -0.2211
     31  CG2       14.1790  -43.5320  -18.3460 C.3    97  THR97       0.0375
     32  N         10.6930  -42.1100  -14.5850 N.3    99  LYS99      -0.1245
     33  CA         9.3750  -41.8020  -15.1420 C.3    99  LYS99       0.1561
     34  C          8.5110  -43.0580  -15.3060 C.2    99  LYS99       0.2260
     35  O          9.0230  -44.1450  -15.5710 O.2    99  LYS99      -0.2867
     36  CB         9.5150  -41.1270  -16.5060 C.3    99  LYS99       0.0271
     37  CG        10.3380  -39.8520  -16.5160 C.3    99  LYS99       0.0035
     38  CD        10.4000  -39.2900  -17.9340 C.3    99  LYS99       0.0206
     39  CE        11.2330  -38.0210  -18.0140 C.3    99  LYS99       0.1093
     40  NZ        11.1850  -37.4220  -19.3820 N.3    99  LYS99      -0.1314
     41  N          6.0460  -45.9000  -16.7780 N.3   101  VAL101     -0.1245
     42  CA         5.9150  -46.5930  -18.0530 C.3   101  VAL101      0.1561
     43  C          4.7650  -47.5750  -17.8600 C.2   101  VAL101      0.2260
     44  O          4.2250  -47.6940  -16.7600 O.2   101  VAL101     -0.2867
     45  CB         7.1940  -47.3860  -18.4390 C.3   101  VAL101      0.0252
     46  CG1        8.3860  -46.4510  -18.5230 C.3   101  VAL101      0.0019
     47  CG2        7.4440  -48.5090  -17.4350 C.3   101  VAL101      0.0019
     48  N          9.6570  -46.0170  -26.0920 N.3   142  GLY142     -0.1210
     49  CA        11.0980  -45.8500  -26.1510 C.3   142  GLY142      0.1956
     50  C         11.5860  -47.2880  -26.1810 C.2   142  GLY142      0.2612
     51  O         11.3940  -47.9900  -27.1770 O.2   142  GLY142     -0.2717
     52  N         12.1990  -47.7440  -25.0950 N.am  143  PHE143     -0.1962
     53  CA        12.6410  -49.1310  -25.0250 C.3   143  PHE143      0.1771
     54  C         11.4070  -49.9720  -24.6880 C.2   143  PHE143      0.2619
     55  O         11.3440  -51.1650  -24.9940 O.2   143  PHE143     -0.2715
     56  CB        13.7250  -49.3040  -23.9570 C.3   143  PHE143      0.0574
     57  CG        15.0630  -48.7230  -24.3470 C.ar  143  PHE143     -0.0200
     58  CD1       15.2520  -48.1470  -25.6040 C.ar  143  PHE143     -0.0042
     59  CD2       16.1360  -48.7610  -23.4620 C.ar  143  PHE143     -0.0042
     60  CE1       16.4890  -47.6170  -25.9740 C.ar  143  PHE143     -0.0003
     61  CE2       17.3830  -48.2330  -23.8220 C.ar  143  PHE143     -0.0003
     62  CZ        17.5590  -47.6610  -25.0800 C.ar  143  PHE143     -0.0000
     63  N         10.4250  -49.3320  -24.0580 N.am  144  VAL144     -0.1977
     64  CA         9.1710  -49.9900  -23.7040 C.3   144  VAL144      0.1596
     65  C          8.0250  -49.0370  -24.0220 C.2   144  VAL144      0.2287
     66  O          8.2390  -47.9590  -24.5880 O.2   144  VAL144     -0.2864
     67  CB         9.0950  -50.3400  -22.1930 C.3   144  VAL144      0.0276
     68  CG1       10.2440  -51.2580  -21.8110 C.3   144  VAL144      0.0022
     69  CG2        9.1130  -49.0650  -21.3520 C.3   144  VAL144      0.0022
     70  N          5.8500  -46.3840  -22.8880 N.3   146  ASP146     -0.1239
     71  CA         5.8200  -45.3820  -21.8240 C.3   146  ASP146      0.1674
     72  C          4.3990  -44.9910  -21.4470 C.2   146  ASP146      0.2266
     73  O          4.0950  -44.7860  -20.2730 O.2   146  ASP146     -0.2867
     74  CB         6.5690  -44.1190  -22.2690 C.3   146  ASP146      0.1410
     75  CG         8.0710  -44.3200  -22.3250 C.2   146  ASP146      0.3668
     76  OD1        8.7480  -43.9770  -21.3360 O.co2 146  ASP146     -0.2456
     77  OD2        8.5660  -44.8320  -23.3510 O.co2 146  ASP146     -0.2456
@<TRIPOS>BOND
     1    13    14    1
     2    13    10    1
     3    16    14   am
     4    14    15    2
     5    11    12    2
     6    11    10    1
     7    10     9    1
     8    51    50    2
     9     9     7   am
    10    50    49    1
    11    50    52   am
    12    49    48    1
    13     7     8    2
    14     7     6    1
    15    60    58   ar
    16    60    62   ar
    17    58    57   ar
    18    52    53    1
    19    62    61   ar
    20    53    54    1
    21    53    56    1
    22    55    54    2
    23     6     5    1
    24    54    63   am
    25    66    65    2
    26    57    56    1
    27    57    59   ar
    28    63    64    1
    29    65    64    1
    30    61    59   ar
    31    64    67    1
    32     5     3   am
    33     4     3    2
    34    77    75   ar
    35     3     2    1
    36    70    71    1
    37    75    74    1
    38    75    76   ar
    39    74    71    1
    40    67    68    1
    41    67    69    1
    42    71    72    1
    43     2     1    1
    44    72    73    2
    45    40    39    1
    46    24    22    1
    47    23    22    1
    48    46    45    1
    49    45    42    1
    50    45    47    1
    51    31    29    1
    52    22    21    1
    53    42    43    1
    54    42    41    1
    55    39    38    1
    56    38    37    1
    57    43    44    2
    58    20    19    2
    59    21    18    1
    60    29    30    1
    61    29    26    1
    62    18    19    1
    63    18    17    1
    64    37    36    1
    65    36    33    1
    66    26    25    1
    67    26    27    1
    68    35    34    2
    69    34    33    1
    70    33    32    1
    71    28    27    2
