@<TRIPOS>MOLECULE
tmp/1xxsB01.pdb
 86 82 0 0 0
SMALL
GASTEIGER

@<TRIPOS>ATOM
      1  N          4.4460   12.8920   13.9330 N.3     2  LEU2       -0.1245
      2  CA         3.8240   13.9230   14.7500 C.3     2  LEU2        0.1561
      3  C          4.8080   14.8240   15.4050 C.2     2  LEU2        0.2260
      4  O          4.5100   15.9730   15.6650 O.2     2  LEU2       -0.2867
      5  CB         2.9750   13.3220   15.8810 C.3     2  LEU2        0.0270
      6  CG         1.5800   12.9800   15.4280 C.3     2  LEU2        0.0019
      7  CD1        0.8420   12.2840   16.5520 C.3     2  LEU2        0.0001
      8  CD2        0.8260   14.2030   14.9310 C.3     2  LEU2        0.0001
      9  N          6.0870   17.2870   12.8150 N.3     5  LEU5       -0.1245
     10  CA         4.9960   18.2000   12.5390 C.3     5  LEU5        0.1561
     11  C          4.8030   19.2620   13.6390 C.2     5  LEU5        0.2260
     12  O          4.6820   20.4840   13.3400 O.2     5  LEU5       -0.2867
     13  CB         3.7070   17.3970   12.3220 C.3     5  LEU5        0.0270
     14  CG         2.4310   18.1870   12.0640 C.3     5  LEU5        0.0019
     15  CD1        2.5710   19.1710   10.8990 C.3     5  LEU5        0.0001
     16  CD2        1.3680   17.1540   11.7870 C.3     5  LEU5        0.0001
     17  N         -3.9600   21.0360   18.5750 N.3    22  GLY22      -0.1225
     18  CA        -4.1410   19.5860   18.7080 C.3    22  GLY22       0.1811
     19  C         -5.5850   19.1720   18.6190 C.2    22  GLY22       0.2280
     20  O         -5.9220   18.0630   18.2680 O.2    22  GLY22      -0.2866
     21  N         -5.3220   18.5470   14.0700 N.3    29  GLY29      -0.1210
     22  CA        -5.0240   17.6300   15.1580 C.3    29  GLY29       0.1956
     23  C         -5.7830   16.3500   15.0660 C.2    29  GLY29       0.2612
     24  O         -5.9220   15.7610   13.9680 O.2    29  GLY29      -0.2717
     25  N         -6.2180   15.8600   16.2150 N.am   30  VAL30      -0.1965
     26  CA        -6.8240   14.5290   16.2610 C.3    30  VAL30       0.1727
     27  C         -7.9660   14.4170   15.2530 C.2    30  VAL30       0.2617
     28  O         -8.6250   15.4150   14.9140 O.2    30  VAL30      -0.2715
     29  CB        -7.3690   14.1920   17.6680 C.3    30  VAL30       0.0290
     30  CG1       -6.2420   14.0230   18.6340 C.3    30  VAL30       0.0023
     31  CG2       -8.3290   15.2650   18.1340 C.3    30  VAL30       0.0023
     32  N         -8.2350   13.2020   14.7910 N.am   31  GLY31      -0.1940
     33  CA        -9.3840   12.9730   13.9230 C.3    31  GLY31       0.2014
     34  C         -9.1250   13.2050   12.4390 C.2    31  GLY31       0.2639
     35  O         -7.9720   13.3600   11.9940 O.2    31  GLY31      -0.2714
     36  N        -10.2050   13.2320   11.6610 N.am   32  GLY32      -0.1954
     37  CA       -10.1170   13.3570   10.2180 C.3    32  GLY32       0.1869
     38  C        -10.3280   14.8040    9.7540 C.2    32  GLY32       0.2309
     39  O        -10.1310   15.7820   10.5190 O.2    32  GLY32      -0.2863
     40  N         -3.6400   20.1050    4.6010 N.3    47  HIS47      -0.1226
     41  CA        -2.6500   19.2410    5.1460 C.3    47  HIS47       0.1752
     42  C         -3.0790   17.7770    5.1240 C.2    47  HIS47       0.2595
     43  O         -2.3420   16.9300    4.6370 O.2    47  HIS47      -0.2718
     44  CB        -2.3000   19.6210    6.5950 C.3    47  HIS47       0.0759
     45  CG        -1.0980   18.8820    7.0940 C.ar   47  HIS47       0.0818
     46  ND1       -1.1100   18.1130    8.2300 N.ar   47  HIS47      -0.2268
     47  CD2        0.1530   18.8060    6.5960 C.ar   47  HIS47       0.1154
     48  CE1        0.0770   17.5610    8.4000 C.ar   47  HIS47       0.1986
     49  NE2        0.8620   17.9650    7.4150 N.ar   47  HIS47      -0.2212
     50  N         -4.2410   17.4600    5.6930 N.am   48  LYS48      -0.1980
     51  CA        -4.6940   16.0720    5.6570 C.3    48  LYS48       0.1596
     52  C         -4.8800   15.5130    4.2070 C.2    48  LYS48       0.2287
     53  O         -4.6300   14.3130    3.9350 O.2    48  LYS48      -0.2864
     54  CB        -5.9390   15.9260    6.5240 C.3    48  LYS48       0.0298
     55  CG        -5.5420   15.9770    8.0570 C.3    48  LYS48       0.0038
     56  CD        -6.7210   16.0820    9.0110 C.3    48  LYS48       0.0206
     57  CE        -6.1700   15.7760   10.4410 C.3    48  LYS48       0.1093
     58  NZ        -7.1780   16.1150   11.4350 N.3    48  LYS48      -0.1314
     59  N         -1.5500   14.4030    2.7650 N.3    51  TYR51      -0.1241
     60  CA        -1.1390   13.0600    3.2600 C.3    51  TYR51       0.1605
     61  C         -1.7410   11.8900    2.4820 C.2    51  TYR51       0.2264
     62  O         -1.2110   10.7990    2.5130 O.2    51  TYR51      -0.2867
     63  CB        -1.5700   12.8390    4.7420 C.3    51  TYR51       0.0534
     64  CG        -0.7010   13.4730    5.8650 C.ar   51  TYR51      -0.0201
     65  CD1        0.3910   14.2670    5.5740 C.ar   51  TYR51      -0.0009
     66  CD2       -0.9790   13.2120    7.2210 C.ar   51  TYR51      -0.0009
     67  CE1        1.1930   14.8100    6.5880 C.ar   51  TYR51       0.0417
     68  CE2       -0.1910   13.7570    8.2460 C.ar   51  TYR51       0.0417
     69  CZ         0.9070   14.5630    7.9110 C.ar   51  TYR51       0.1957
     70  OH         1.7190   15.1350    8.8980 O.3    51  TYR51      -0.2866
     71  N          2.5540    8.7890    7.8630 N.3    59  PRO59      -0.2102
     72  CA         2.7610   10.1970    8.2480 C.3    59  PRO59       0.1504
     73  C          2.8420   10.3960    9.7660 C.2    59  PRO59       0.2575
     74  O          3.5190   11.3050   10.2430 O.2    59  PRO59      -0.2718
     75  CB         1.5360   10.9080    7.6640 C.3    59  PRO59       0.0282
     76  CG         0.9370    9.9120    6.6610 C.3    59  PRO59       0.0208
     77  CD         1.2670    8.5670    7.1790 C.3    59  PRO59       0.0893
     78  N          2.1570    9.5430   10.5210 N.am   60  LYS60      -0.1980
     79  CA         2.1070    9.7020   11.9710 C.3    60  LYS60       0.1596
     80  C          3.3300    9.1150   12.6310 C.2    60  LYS60       0.2287
     81  O          3.8030    9.6360   13.6250 O.2    60  LYS60      -0.2864
     82  CB         0.8800    9.0150   12.5670 C.3    60  LYS60       0.0298
     83  CG        -0.4360    9.5890   12.1150 C.3    60  LYS60       0.0038
     84  CD        -1.1210   10.3550   13.2530 C.3    60  LYS60       0.0206
     85  CE        -1.7190   11.6460   12.7090 C.3    60  LYS60       0.1093
     86  NZ        -1.7160   11.6600   11.1990 N.3    60  LYS60      -0.1314
@<TRIPOS>BOND
     1    61    62    2
     2    61    60    1
     3    59    60    1
     4    60    63    1
     5    53    52    2
     6    52    51    1
     7    40    41    1
     8    43    42    2
     9    63    64    1
    10    42    41    1
    11    42    50   am
    12    41    44    1
    13    65    64   ar
    14    65    67   ar
    15    51    50    1
    16    51    54    1
    17    64    66   ar
    18    54    55    1
    19    67    69   ar
    20    44    45    1
    21    47    45   ar
    22    47    49   ar
    23    76    77    1
    24    76    75    1
    25    45    46   ar
    26    77    71    1
    27    66    68   ar
    28    49    48   ar
    29    75    72    1
    30    71    72    1
    31    69    68   ar
    32    69    70    1
    33    55    56    1
    34    46    48   ar
    35    72    73    1
    36    56    57    1
    37    38    37    1
    38    38    39    2
    39    73    74    2
    40    73    78   am
    41    37    36    1
    42    57    58    1
    43    78    79    1
    44    15    14    1
    45    86    85    1
    46    36    34   am
    47    16    14    1
    48    79    82    1
    49    79    80    1
    50    35    34    2
    51    14    13    1
    52    83    82    1
    53    83    84    1
    54    13    10    1
    55    34    33    1
    56    10     9    1
    57    10    11    1
    58    80    81    2
    59    85    84    1
    60    12    11    2
    61    33    32    1
    62     1     2    1
    63    24    23    2
    64    21    22    1
    65     2     3    1
    66     2     5    1
    67    32    27   am
    68    28    27    2
    69     8     6    1
    70    23    22    1
    71    23    25   am
    72    27    26    1
    73     3     4    2
    74     6     5    1
    75     6     7    1
    76    25    26    1
    77    26    29    1
    78    29    31    1
    79    29    30    1
    80    20    19    2
    81    17    18    1
    82    19    18    1
