@<TRIPOS>MOLECULE
tmp/1xxsA01.pdb
 99 93 0 0 0
SMALL
GASTEIGER

@<TRIPOS>ATOM
      1  N         19.1440   36.5760   30.5030 N.3     2  LEU2       -0.1245
      2  CA        19.7130   35.3910   29.8640 C.3     2  LEU2        0.1561
      3  C         18.7080   34.4640   29.2330 C.2     2  LEU2        0.2260
      4  O         18.9670   33.8130   28.2300 O.2     2  LEU2       -0.2867
      5  CB        20.4840   34.5630   30.9300 C.3     2  LEU2        0.0270
      6  CG        21.8370   35.1830   31.2470 C.3     2  LEU2        0.0019
      7  CD1       22.8100   34.1990   32.0220 C.3     2  LEU2        0.0001
      8  CD2       22.3930   35.6610   29.9970 C.3     2  LEU2        0.0001
      9  N         17.4870   36.1500   25.8880 N.3     5  LEU5       -0.1245
     10  CA        18.5890   36.0560   24.9730 C.3     5  LEU5        0.1561
     11  C         18.7240   34.6490   24.4020 C.2     5  LEU5        0.2260
     12  O         18.7950   34.4780   23.1510 O.2     5  LEU5       -0.2867
     13  CB        19.8460   36.4930   25.7090 C.3     5  LEU5        0.0270
     14  CG        21.0780   36.3640   24.8570 C.3     5  LEU5        0.0019
     15  CD1       20.9330   37.3270   23.6040 C.3     5  LEU5        0.0001
     16  CD2       22.2090   36.6950   25.8560 C.3     5  LEU5        0.0001
     17  N         23.1550   27.4940   24.3330 N.3    18  ALA18      -0.1245
     18  CA        24.1880   27.2540   25.3200 C.3    18  ALA18       0.1562
     19  C         25.2760   26.4020   24.6710 C.2    18  ALA18       0.2260
     20  O         26.4050   26.7880   24.6900 O.2    18  ALA18      -0.2867
     21  CB        23.6090   26.5820   26.6590 C.3    18  ALA18       0.0290
     22  N         27.4810   29.2190   24.1280 N.3    22  GLY22      -0.1210
     23  CA        27.6800   29.5330   25.5360 C.3    22  GLY22       0.1956
     24  C         29.1480   29.7680   25.8340 C.2    22  GLY22       0.2611
     25  O         29.4630   30.4450   26.8010 O.2    22  GLY22      -0.2717
     26  N         30.0350   29.1510   25.0340 N.am   23  VAL23      -0.1979
     27  CA        31.4800   29.3480   25.1400 C.3    23  VAL23       0.1595
     28  C         32.1400   29.5320   23.7760 C.2    23  VAL23       0.2287
     29  O         33.2830   29.1420   23.5800 O.2    23  VAL23      -0.2864
     30  CB        32.1610   28.1690   25.8800 C.3    23  VAL23       0.0276
     31  CG1       33.2960   28.6950   26.7640 C.3    23  VAL23       0.0022
     32  CG2       31.1550   27.4640   26.8010 C.3    23  VAL23       0.0022
     33  N         28.8790   34.2900   25.0060 N.3    29  GLY29      -0.1210
     34  CA        28.6040   33.5500   26.2340 C.3    29  GLY29       0.1956
     35  C         29.3950   34.0330   27.4290 C.2    29  GLY29       0.2612
     36  O         29.4790   35.2590   27.6960 O.2    29  GLY29      -0.2717
     37  N         29.9790   33.0690   28.1460 N.am   30  VAL30      -0.1965
     38  CA        30.5500   33.3130   29.4640 C.3    30  VAL30       0.1727
     39  C         31.7040   34.2310   29.2300 C.2    30  VAL30       0.2616
     40  O         32.3440   34.1750   28.1720 O.2    30  VAL30      -0.2715
     41  CB        31.0580   32.0010   30.2040 C.3    30  VAL30       0.0290
     42  CG1       29.8950   31.2280   30.8290 C.3    30  VAL30       0.0023
     43  CG2       31.8300   31.1120   29.3060 C.3    30  VAL30       0.0023
     44  N         31.9670   35.1060   30.1830 N.am   31  GLY31      -0.1955
     45  CA        33.1790   35.8950   30.0540 C.3    31  GLY31       0.1869
     46  C         32.8810   37.2360   29.4440 C.2    31  GLY31       0.2309
     47  O         31.7130   37.6490   29.3780 O.2    31  GLY31      -0.2863
     48  N         27.1610   42.7750   20.7170 N.3    47  HIS47      -0.1226
     49  CA        26.1570   42.5680   21.7590 C.3    47  HIS47       0.1752
     50  C         26.5690   42.9770   23.2110 C.2    47  HIS47       0.2595
     51  O         25.8140   43.6460   23.9520 O.2    47  HIS47      -0.2718
     52  CB        25.8040   41.0690   21.7570 C.3    47  HIS47       0.0759
     53  CG        24.7060   40.7260   22.6950 C.ar   47  HIS47       0.0818
     54  ND1       24.8330   39.8040   23.7250 N.ar   47  HIS47      -0.2268
     55  CD2       23.4600   41.2260   22.7820 C.ar   47  HIS47       0.1154
     56  CE1       23.7050   39.7590   24.3990 C.ar   47  HIS47       0.1986
     57  NE2       22.8460   40.5860   23.8240 N.ar   47  HIS47      -0.2212
     58  N         27.7420   42.5360   23.6160 N.am   48  LYS48      -0.1980
     59  CA        28.3140   42.9170   24.8910 C.3    48  LYS48       0.1596
     60  C         28.5570   44.4310   24.9890 C.2    48  LYS48       0.2287
     61  O         28.3830   44.9940   26.0710 O.2    48  LYS48      -0.2864
     62  CB        29.5830   42.0960   25.1420 C.3    48  LYS48       0.0298
     63  CG        29.1870   40.6750   25.4700 C.3    48  LYS48       0.0038
     64  CD        30.3230   39.8170   25.8570 C.3    48  LYS48       0.0206
     65  CE        29.7350   38.4770   26.3840 C.3    48  LYS48       0.1093
     66  NZ        30.8140   37.5290   26.4330 N.3    48  LYS48      -0.1314
     67  N         25.1950   45.9800   25.6660 N.3    51  TYR51      -0.1241
     68  CA        24.9650   45.8990   27.1260 C.3    51  TYR51       0.1605
     69  C         25.6560   46.9990   27.9420 C.2    51  TYR51       0.2264
     70  O         25.1160   47.5230   28.9210 O.2    51  TYR51      -0.2867
     71  CB        25.4210   44.5140   27.6570 C.3    51  TYR51       0.0534
     72  CG        24.3850   43.4100   27.4810 C.ar   51  TYR51      -0.0201
     73  CD1       23.4020   43.5050   26.5330 C.ar   51  TYR51      -0.0009
     74  CD2       24.4370   42.2540   28.2540 C.ar   51  TYR51      -0.0009
     75  CE1       22.4660   42.5240   26.3920 C.ar   51  TYR51       0.0417
     76  CE2       23.5070   41.2230   28.0890 C.ar   51  TYR51       0.0417
     77  CZ        22.5150   41.3800   27.1600 C.ar   51  TYR51       0.1957
     78  OH        21.5960   40.3760   27.0050 O.3    51  TYR51      -0.2866
     79  N         21.4530   40.8610   32.5430 N.3    60  LYS60      -0.1245
     80  CA        21.4590   39.4080   32.7170 C.3    60  LYS60       0.1561
     81  C         20.2490   38.8950   33.4370 C.2    60  LYS60       0.2260
     82  O         19.8620   37.7390   33.2500 O.2    60  LYS60      -0.2867
     83  CB        22.6840   39.0100   33.5360 C.3    60  LYS60       0.0271
     84  CG        23.9910   39.3190   32.8270 C.3    60  LYS60       0.0035
     85  CD        24.8050   38.0250   32.7300 C.3    60  LYS60       0.0206
     86  CE        25.3440   37.6030   34.1160 C.3    60  LYS60       0.1093
     87  NZ        24.7780   38.4290   35.2530 N.3    60  LYS60      -0.1314
     88  N         37.3300   27.1360   25.8750 N.3   111  TYR111     -0.1241
     89  CA        37.6490   27.2010   27.2960 C.3   111  TYR111      0.1605
     90  C         38.7930   28.1850   27.5290 C.2   111  TYR111      0.2264
     91  O         39.0220   28.6490   28.6500 O.2   111  TYR111     -0.2867
     92  CB        37.9330   25.7990   27.8350 C.3   111  TYR111      0.0534
     93  CG        36.6110   25.1270   28.1120 C.ar  111  TYR111     -0.0201
     94  CD1       36.2150   23.9580   27.4370 C.ar  111  TYR111     -0.0009
     95  CD2       35.7180   25.7120   29.0240 C.ar  111  TYR111     -0.0009
     96  CE1       34.9750   23.3940   27.6850 C.ar  111  TYR111      0.0417
     97  CE2       34.4950   25.1660   29.2780 C.ar  111  TYR111      0.0417
     98  CZ        34.1300   24.0110   28.6210 C.ar  111  TYR111      0.1957
     99  OH        32.8920   23.5200   28.9160 O.3   111  TYR111     -0.2866
@<TRIPOS>BOND
     1    48    49    1
     2    52    49    1
     3    52    53    1
     4    49    50    1
     5    53    55   ar
     6    53    54   ar
     7    55    57   ar
     8    12    11    2
     9    50    58   am
    10    50    51    2
    11    29    28    2
    12    15    14    1
    13    58    59    1
    14    54    56   ar
    15    28    27    1
    16    57    56   ar
    17    22    23    1
    18    17    18    1
    19    11    10    1
    20    19    20    2
    21    19    18    1
    22    14    13    1
    23    14    16    1
    24    59    60    1
    25    59    62    1
    26    10    13    1
    27    10     9    1
    28    60    61    2
    29    33    34    1
    30    26    27    1
    31    26    24   am
    32    27    30    1
    33    62    63    1
    34    18    21    1
    35    63    64    1
    36    23    24    1
    37    67    68    1
    38    24    25    2
    39    64    65    1
    40    88    89    1
    41    30    31    1
    42    30    32    1
    43    34    35    1
    44    65    66    1
    45    75    73   ar
    46    75    77   ar
    47    73    72   ar
    48    78    77    1
    49    68    71    1
    50    68    69    1
    51    77    76   ar
    52    89    90    1
    53    89    92    1
    54    35    36    2
    55    35    37   am
    56    94    96   ar
    57    94    93   ar
    58    72    71    1
    59    72    74   ar
    60    90    91    2
    61    96    98   ar
    62    92    93    1
    63    69    70    2
    64    76    74   ar
    65    93    95   ar
    66    37    38    1
    67    40    39    2
    68     4     3    2
    69    98    99    1
    70    98    97   ar
    71    95    97   ar
    72    39    38    1
    73    39    44   am
    74     3     2    1
    75    43    41    1
    76    47    46    2
    77    46    45    1
    78    38    41    1
    79     2     1    1
    80     2     5    1
    81     8     6    1
    82    45    44    1
    83    41    42    1
    84     5     6    1
    85     6     7    1
    86    79    80    1
    87    80    81    1
    88    80    83    1
    89    85    84    1
    90    85    86    1
    91    84    83    1
    92    82    81    2
    93    86    87    1
