@<TRIPOS>MOLECULE
tmp/1xxsB00.pdb
 161 155 0 0 0
SMALL
GASTEIGER

@<TRIPOS>ATOM
      1  N          6.5740   12.4110   11.0150 N.3     1  SER1       -0.1202
      2  CA         5.8490   11.9260   12.2160 C.3     1  SER1        0.2020
      3  C          5.3050   13.1530   12.9570 C.2     1  SER1        0.2619
      4  O          5.6760   14.3130   12.6260 O.2     1  SER1       -0.2717
      5  CB         6.7700   11.0950   13.1170 C.3     1  SER1        0.2103
      6  OG         7.5010   11.8940   14.0500 O.3     1  SER1       -0.2182
      7  N          4.4460   12.8920   13.9330 N.am    2  LEU2       -0.1965
      8  CA         3.8240   13.9230   14.7500 C.3     2  LEU2        0.1728
      9  C          4.8080   14.8240   15.4050 C.2     2  LEU2        0.2616
     10  O          4.5100   15.9730   15.6650 O.2     2  LEU2       -0.2715
     11  CB         2.9750   13.3220   15.8810 C.3     2  LEU2        0.0311
     12  CG         1.5800   12.9800   15.4280 C.3     2  LEU2        0.0022
     13  CD1        0.8420   12.2840   16.5520 C.3     2  LEU2        0.0001
     14  CD2        0.8260   14.2030   14.9310 C.3     2  LEU2        0.0001
     15  N          5.9450   14.2700   15.7550 N.am    3  PHE3       -0.1974
     16  CA         6.9140   15.0500   16.4420 C.3     3  PHE3        0.1639
     17  C          7.4740   16.1120   15.4800 C.2     3  PHE3        0.2290
     18  O          7.6560   17.2400   15.9070 O.2     3  PHE3       -0.2864
     19  CB         8.0010   14.1520   17.0370 C.3     3  PHE3        0.0560
     20  CG         9.2660   14.8920   17.4090 C.ar    3  PHE3       -0.0200
     21  CD1        9.4370   15.4440   18.6830 C.ar    3  PHE3       -0.0042
     22  CD2       10.2780   15.0520   16.4720 C.ar    3  PHE3       -0.0042
     23  CE1       10.6310   16.1350   19.0110 C.ar    3  PHE3       -0.0003
     24  CE2       11.4440   15.7490   16.7730 C.ar    3  PHE3       -0.0003
     25  CZ        11.6170   16.2940   18.0430 C.ar    3  PHE3       -0.0000
     26  N          6.0870   17.2870   12.8150 N.3     5  LEU5       -0.1231
     27  CA         4.9960   18.2000   12.5390 C.3     5  LEU5        0.1693
     28  C          4.8030   19.2620   13.6390 C.2     5  LEU5        0.2592
     29  O          4.6820   20.4840   13.3400 O.2     5  LEU5       -0.2718
     30  CB         3.7070   17.3970   12.3220 C.3     5  LEU5        0.0284
     31  CG         2.4310   18.1870   12.0640 C.3     5  LEU5        0.0019
     32  CD1        2.5710   19.1710   10.8990 C.3     5  LEU5        0.0001
     33  CD2        1.3680   17.1540   11.7870 C.3     5  LEU5        0.0001
     34  N          4.8040   18.8210   14.9040 N.am    6  GLY6       -0.1957
     35  CA         4.4890   19.7240   16.0170 C.3     6  GLY6        0.1869
     36  C          5.6560   20.6730   16.1320 C.2     6  GLY6        0.2309
     37  O          5.5050   21.8830   16.3670 O.2     6  GLY6       -0.2863
     38  N          5.3560   23.4280   13.3970 N.3     9  ILE9       -0.1245
     39  CA         4.3590   24.4160   13.8180 C.3     9  ILE9        0.1561
     40  C          4.8560   25.3640   14.9240 C.2     9  ILE9        0.2260
     41  O          4.5150   26.5460   14.9410 O.2     9  ILE9       -0.2867
     42  CB         3.1540   23.6610   14.3360 C.3     9  ILE9        0.0252
     43  CG1        2.4860   22.9730   13.1380 C.3     9  ILE9        0.0019
     44  CG2        2.2490   24.6360   15.2100 C.3     9  ILE9        0.0019
     45  CD1        1.3500   22.0860   13.5100 C.3     9  ILE9        0.0001
     46  N          2.1060   23.7110   19.9530 N.3    17  PRO17      -0.2102
     47  CA         1.2960   23.1090   18.8820 C.3    17  PRO17       0.1504
     48  C          0.2130   22.1940   19.4330 C.2    17  PRO17       0.2575
     49  O         -0.8520   22.2600   18.8850 O.2    17  PRO17      -0.2718
     50  CB         2.3040   22.3190   18.0340 C.3    17  PRO17       0.0282
     51  CG         3.4820   22.1260   18.9110 C.3    17  PRO17       0.0208
     52  CD         3.4990   23.2180   19.9490 C.3    17  PRO17       0.0893
     53  N          0.4470   21.3950   20.4760 N.am   18  ALA18      -0.1980
     54  CA        -0.6190   20.5310   20.9610 C.3    18  ALA18       0.1597
     55  C         -1.7390   21.3750   21.5250 C.2    18  ALA18       0.2287
     56  O         -2.8820   21.0600   21.3030 O.2    18  ALA18      -0.2864
     57  CB        -0.1300   19.5290   22.0510 C.3    18  ALA18       0.0319
     58  N         -3.4110   23.7240   18.4060 N.3    21  TYR21      -0.1227
     59  CA        -3.8670   23.0560   17.1970 C.3    21  TYR21       0.1736
     60  C         -4.2130   21.6040   17.3960 C.2    21  TYR21       0.2596
     61  O         -4.7160   20.9750   16.4710 O.2    21  TYR21      -0.2718
     62  CB        -2.8240   23.1320   16.0800 C.3    21  TYR21       0.0548
     63  CG        -2.4370   24.5490   15.7430 C.ar   21  TYR21      -0.0200
     64  CD1       -1.1930   25.0400   16.0900 C.ar   21  TYR21      -0.0009
     65  CD2       -3.3330   25.4010   15.1210 C.ar   21  TYR21      -0.0009
     66  CE1       -0.8300   26.3800   15.8070 C.ar   21  TYR21       0.0417
     67  CE2       -2.9880   26.7090   14.8300 C.ar   21  TYR21       0.0417
     68  CZ        -1.7530   27.1990   15.1840 C.ar   21  TYR21       0.1957
     69  OH        -1.4560   28.5170   14.8890 O.3    21  TYR21      -0.2866
     70  N         -3.9600   21.0360   18.5750 N.am   22  GLY22      -0.1957
     71  CA        -4.1410   19.5860   18.7080 C.3    22  GLY22       0.1869
     72  C         -5.5850   19.1720   18.6190 C.2    22  GLY22       0.2309
     73  O         -5.9220   18.0630   18.2680 O.2    22  GLY22      -0.2863
     74  N        -10.3130   20.3730   11.5380 N.3    27  ASN27      -0.1225
     75  CA        -9.3460   19.6320   10.7530 C.3    27  ASN27       0.1785
     76  C         -8.0420   19.4610   11.4860 C.2    27  ASN27       0.2597
     77  O         -7.3150   18.5150   11.2150 O.2    27  ASN27      -0.2718
     78  CB        -9.1170   20.3320    9.4270 C.3    27  ASN27       0.1169
     79  CG       -10.2950   20.1960    8.5090 C.2    27  ASN27       0.2627
     80  OD1      -10.4660   19.1360    7.8370 O.2    27  ASN27      -0.2716
     81  ND2      -11.1120   21.2410    8.4450 N.am   27  ASN27      -0.0877
     82  N         -7.7400   20.3790   12.4020 N.am   28  CYS28      -0.1956
     83  CA        -6.4570   20.4140   13.0350 C.3    28  CYS28       0.1843
     84  C         -6.3710   19.3580   14.0910 C.2    28  CYS28       0.2626
     85  O         -7.2290   19.2820   14.9180 O.2    28  CYS28      -0.2714
     86  CB        -6.2470   21.8150   13.6480 C.3    28  CYS28       0.0997
     87  SG        -6.1130   23.0850   12.3820 S.3    28  CYS28      -0.0797
     88  N         -5.3220   18.5470   14.0700 N.am   29  GLY29      -0.1954
     89  CA        -5.0240   17.6300   15.1580 C.3    29  GLY29       0.1869
     90  C         -5.7830   16.3500   15.0660 C.2    29  GLY29       0.2309
     91  O         -5.9220   15.7610   13.9680 O.2    29  GLY29      -0.2863
     92  N         -5.1600   23.0500    7.9470 N.3    44  CYS44      -0.1235
     93  CA        -5.1240   21.6520    8.4210 C.3    44  CYS44       0.1677
     94  C         -5.8030   20.6640    7.4770 C.2    44  CYS44       0.2270
     95  O         -5.3390   19.5840    7.2830 O.2    44  CYS44      -0.2867
     96  CB        -5.7060   21.5200    9.8390 C.3    44  CYS44       0.0956
     97  SG        -4.7120   22.4550   11.0340 S.3    44  CYS44      -0.0801
     98  N         -3.6400   20.1050    4.6010 N.3    47  HIS47      -0.1226
     99  CA        -2.6500   19.2410    5.1460 C.3    47  HIS47       0.1752
    100  C         -3.0790   17.7770    5.1240 C.2    47  HIS47       0.2595
    101  O         -2.3420   16.9300    4.6370 O.2    47  HIS47      -0.2718
    102  CB        -2.3000   19.6210    6.5950 C.3    47  HIS47       0.0759
    103  CG        -1.0980   18.8820    7.0940 C.ar   47  HIS47       0.0818
    104  ND1       -1.1100   18.1130    8.2300 N.ar   47  HIS47      -0.2268
    105  CD2        0.1530   18.8060    6.5960 C.ar   47  HIS47       0.1154
    106  CE1        0.0770   17.5610    8.4000 C.ar   47  HIS47       0.1986
    107  NE2        0.8620   17.9650    7.4150 N.ar   47  HIS47      -0.2212
    108  N         -4.2410   17.4600    5.6930 N.am   48  LYS48      -0.1980
    109  CA        -4.6940   16.0720    5.6570 C.3    48  LYS48       0.1596
    110  C         -4.8800   15.5130    4.2070 C.2    48  LYS48       0.2287
    111  O         -4.6300   14.3130    3.9350 O.2    48  LYS48      -0.2864
    112  CB        -5.9390   15.9260    6.5240 C.3    48  LYS48       0.0298
    113  CG        -5.5420   15.9770    8.0570 C.3    48  LYS48       0.0038
    114  CD        -6.7210   16.0820    9.0110 C.3    48  LYS48       0.0206
    115  CE        -6.1700   15.7760   10.4410 C.3    48  LYS48       0.1093
    116  NZ        -7.1780   16.1150   11.4350 N.3    48  LYS48      -0.1314
    117  N         -1.5500   14.4030    2.7650 N.3    51  TYR51      -0.1241
    118  CA        -1.1390   13.0600    3.2600 C.3    51  TYR51       0.1605
    119  C         -1.7410   11.8900    2.4820 C.2    51  TYR51       0.2264
    120  O         -1.2110   10.7990    2.5130 O.2    51  TYR51      -0.2867
    121  CB        -1.5700   12.8390    4.7420 C.3    51  TYR51       0.0534
    122  CG        -0.7010   13.4730    5.8650 C.ar   51  TYR51      -0.0201
    123  CD1        0.3910   14.2670    5.5740 C.ar   51  TYR51      -0.0009
    124  CD2       -0.9790   13.2120    7.2210 C.ar   51  TYR51      -0.0009
    125  CE1        1.1930   14.8100    6.5880 C.ar   51  TYR51       0.0417
    126  CE2       -0.1910   13.7570    8.2460 C.ar   51  TYR51       0.0417
    127  CZ         0.9070   14.5630    7.9110 C.ar   51  TYR51       0.1957
    128  OH         1.7190   15.1350    8.8980 O.3    51  TYR51      -0.2866
    129  N          2.1570    9.5430   10.5210 N.3    60  LYS60      -0.1231
    130  CA         2.1070    9.7020   11.9710 C.3    60  LYS60       0.1693
    131  C          3.3300    9.1150   12.6310 C.2    60  LYS60       0.2591
    132  O          3.8030    9.6360   13.6250 O.2    60  LYS60      -0.2718
    133  CB         0.8800    9.0150   12.5670 C.3    60  LYS60       0.0285
    134  CG        -0.4360    9.5890   12.1150 C.3    60  LYS60       0.0035
    135  CD        -1.1210   10.3550   13.2530 C.3    60  LYS60       0.0206
    136  CE        -1.7190   11.6460   12.7090 C.3    60  LYS60       0.1093
    137  NZ        -1.7160   11.6600   11.1990 N.3    60  LYS60      -0.1314
    138  N          3.8090    8.0030   12.0910 N.am   61  LYS61      -0.1980
    139  CA         4.8850    7.2680   12.7090 C.3    61  LYS61       0.1596
    140  C          6.2140    7.5420   12.0840 C.2    61  LYS61       0.2287
    141  O          7.1860    7.4860   12.7660 O.2    61  LYS61      -0.2864
    142  CB         4.6170    5.7580   12.6380 C.3    61  LYS61       0.0298
    143  CG         3.3580    5.3470   13.3560 C.3    61  LYS61       0.0038
    144  CD         3.5780    5.2730   14.8470 C.3    61  LYS61       0.0206
    145  CE         2.4140    4.5540   15.5450 C.3    61  LYS61       0.1093
    146  NZ         2.7880    3.9960   16.8840 N.3    61  LYS61      -0.1314
    147  N          1.7510   23.1050    5.9610 N.3    92  VAL92      -0.1245
    148  CA         0.7880   23.4260    7.0030 C.3    92  VAL92       0.1561
    149  C          1.3320   24.3460    8.1090 C.2    92  VAL92       0.2260
    150  O          0.6350   25.2200    8.6070 O.2    92  VAL92      -0.2867
    151  CB         0.0640   22.2170    7.5910 C.3    92  VAL92       0.0252
    152  CG1        0.9860   21.3880    8.5550 C.3    92  VAL92       0.0019
    153  CG2       -1.1060   22.7510    8.3560 C.3    92  VAL92       0.0019
    154  N         -0.4200   27.8930    8.9390 N.3    96  LEU96      -0.1245
    155  CA        -0.8740   28.2810   10.2590 C.3    96  LEU96       0.1561
    156  C         -0.2690   29.6230   10.6910 C.2    96  LEU96       0.2260
    157  O         -0.9550   30.4230   11.2920 O.2    96  LEU96      -0.2867
    158  CB        -0.5590   27.1600   11.2740 C.3    96  LEU96       0.0270
    159  CG        -1.2850   25.8560   10.9300 C.3    96  LEU96       0.0019
    160  CD1       -0.7880   24.6740   11.8360 C.3    96  LEU96       0.0001
    161  CD2       -2.8270   26.1400   11.1130 C.3    96  LEU96       0.0001
@<TRIPOS>BOND
     1   119   120    2
     2   119   118    1
     3   117   118    1
     4   118   121    1
     5   111   110    2
     6   110   109    1
     7    98    99    1
     8   101   100    2
     9   121   122    1
    10   100    99    1
    11   100   108   am
    12    99   102    1
    13   123   122   ar
    14   123   125   ar
    15   109   108    1
    16   109   112    1
    17   122   124   ar
    18   147   148    1
    19   112   113    1
    20   125   127   ar
    21   102   103    1
    22   105   103   ar
    23   105   107   ar
    24   148   151    1
    25   148   149    1
    26   103   104   ar
    27   124   126   ar
    28    95    94    2
    29   107   106   ar
    30    94    93    1
    31   151   153    1
    32   151   152    1
    33    80    79    2
    34   127   126   ar
    35   127   128    1
    36    92    93    1
    37   113   114    1
    38   149   150    2
    39   104   106   ar
    40    93    96    1
    41    81    79   am
    42    79    78    1
    43   154   155    1
    44   114   115    1
    45    78    75    1
    46    96    97    1
    47   155   156    1
    48   155   158    1
    49   115   116    1
    50   129   130    1
    51   156   157    2
    52    75    76    1
    53    75    74    1
    54    32    31    1
    55   159   161    1
    56   159   158    1
    57   159   160    1
    58     1     2    1
    59    97    87    1
    60   137   136    1
    61    77    76    2
    62    76    82   am
    63    33    31    1
    64   130   133    1
    65   130   131    1
    66    31    30    1
    67   140   139    1
    68   140   141    2
    69   138   131   am
    70   138   139    1
    71   134   133    1
    72   134   135    1
    73     2     3    1
    74     2     5    1
    75    30    27    1
    76    87    86    1
    77    82    83    1
    78    27    26    1
    79    27    28    1
    80     4     3    2
    81   131   132    2
    82   142   139    1
    83   142   143    1
    84   136   135    1
    85     3     7   am
    86    83    86    1
    87    83    84    1
    88     5     6    1
    89    43    45    1
    90    43    42    1
    91    29    28    2
    92   143   144    1
    93    38    39    1
    94    28    34   am
    95    39    42    1
    96    39    40    1
    97     7     8    1
    98    91    90    2
    99    88    84   am
   100    88    89    1
   101    84    85    2
   102    42    44    1
   103     8     9    1
   104     8    11    1
   105    67    65   ar
   106    67    68   ar
   107   144   145    1
   108    69    68    1
   109    34    35    1
   110    40    41    2
   111    14    12    1
   112    90    89    1
   113    65    63   ar
   114    68    66   ar
   115     9    10    2
   116     9    15   am
   117    12    11    1
   118    12    13    1
   119    17    18    2
   120    17    16    1
   121   145   146    1
   122    63    62    1
   123    63    64   ar
   124    15    16    1
   125    66    64   ar
   126    35    36    1
   127    62    59    1
   128    36    37    2
   129    16    19    1
   130    61    60    2
   131    22    24   ar
   132    22    20   ar
   133    24    25   ar
   134    19    20    1
   135    59    60    1
   136    59    58    1
   137    60    70   am
   138    20    21   ar
   139    50    47    1
   140    50    51    1
   141    25    23   ar
   142    73    72    2
   143    70    71    1
   144    72    71    1
   145    21    23   ar
   146    47    48    1
   147    47    46    1
   148    49    48    2
   149    51    52    1
   150    48    53   am
   151    52    46    1
   152    53    54    1
   153    54    55    1
   154    54    57    1
   155    56    55    2
