@<TRIPOS>MOLECULE
tmp/1xxvA01.pdb
 127 121 0 0 0
SMALL
GASTEIGER

@<TRIPOS>ATOM
      1  N         22.4960   38.8180   12.0070 N.3    92  ARG92      -0.1245
      2  CA        21.2330   39.4970   11.7370 C.3    92  ARG92       0.1563
      3  C         20.5630   38.7140   10.6150 C.2    92  ARG92       0.2260
      4  O         20.0540   39.3020    9.6640 O.2    92  ARG92      -0.2867
      5  CB        21.4950   40.9340   11.2810 C.3    92  ARG92       0.0307
      6  CG        22.1560   41.8210   12.3210 C.3    92  ARG92       0.0489
      7  CD        21.1540   42.2930   13.3540 C.3    92  ARG92       0.2205
      8  NE        21.7410   43.2360   14.3050 N.pl3  92  ARG92      -0.0865
      9  CZ        22.3810   42.8960   15.4230 C.cat  92  ARG92       0.5346
     10  NH1       22.5270   41.6170   15.7500 N.pl3  92  ARG92       0.1354
     11  NH2       22.8670   43.8370   16.2230 N.pl3  92  ARG92       0.1354
     12  N         13.2270   33.7120   18.3060 N.3   149  THR149     -0.1218
     13  CA        13.6250   34.9150   19.0120 C.3   149  THR149      0.1862
     14  C         14.7810   34.5900   19.9400 C.2   149  THR149      0.2287
     15  O         14.6280   33.8590   20.9110 O.2   149  THR149     -0.2866
     16  CB        12.4570   35.4820   19.8020 C.3   149  THR149      0.1770
     17  OG1       11.3570   35.6880   18.9040 O.3   149  THR149     -0.2211
     18  CG2       12.8500   36.8110   20.4510 C.3   149  THR149      0.0375
     19  N         17.4170   35.7060   22.6420 N.3   151  ARG151     -0.1245
     20  CA        17.6610   36.6670   23.7060 C.3   151  ARG151      0.1563
     21  C         18.8990   36.3010   24.5280 C.2   151  ARG151      0.2260
     22  O         19.1100   35.1430   24.8920 O.2   151  ARG151     -0.2867
     23  CB        16.4480   36.7500   24.6330 C.3   151  ARG151      0.0307
     24  CG        15.4800   37.8620   24.2850 C.3   151  ARG151      0.0489
     25  CD        14.2450   37.8250   25.1640 C.3   151  ARG151      0.2205
     26  NE        13.3120   36.7910   24.7210 N.pl3 151  ARG151     -0.0865
     27  CZ        12.2150   37.0210   24.0020 C.cat 151  ARG151      0.5346
     28  NH1       11.9000   38.2610   23.6420 N.pl3 151  ARG151      0.1354
     29  NH2       11.4340   36.0090   23.6390 N.pl3 151  ARG151      0.1354
     30  N         22.9560   41.6490   25.0600 N.3   155  GLN155     -0.1231
     31  CA        22.8980   41.6720   23.6030 C.3   155  GLN155      0.1698
     32  C         21.5070   42.1040   23.1790 C.2   155  GLN155      0.2592
     33  O         20.5510   42.0180   23.9540 O.2   155  GLN155     -0.2718
     34  CB        23.1590   40.2790   23.0330 C.3   155  GLN155      0.0381
     35  CG        24.4500   39.6430   23.4730 C.3   155  GLN155      0.0905
     36  CD        25.6590   40.3750   22.9390 C.2   155  GLN155      0.2608
     37  OE1       25.8800   40.4400   21.7230 O.2   155  GLN155     -0.2717
     38  NE2       26.4540   40.9370   23.8450 N.am  155  GLN155     -0.0878
     39  N         21.4020   42.5610   21.9370 N.am  156  LYS156     -0.1966
     40  CA        20.1270   42.9850   21.3770 C.3   156  LYS156      0.1728
     41  C         19.3400   41.7420   20.9580 C.2   156  LYS156      0.2617
     42  O         19.8870   40.8230   20.3530 O.2   156  LYS156     -0.2715
     43  CB        20.3580   43.8820   20.1540 C.3   156  LYS156      0.0311
     44  CG        20.8680   45.2980   20.4490 C.3   156  LYS156      0.0038
     45  CD        21.4850   45.8940   19.1860 C.3   156  LYS156      0.0206
     46  CE        21.9260   47.3460   19.3430 C.3   156  LYS156      0.1093
     47  NZ        20.7630   48.2630   19.4230 N.3   156  LYS156     -0.1314
     48  N         18.0590   41.7100   21.2920 N.am  157  THR157     -0.1937
     49  CA        17.2140   40.5880   20.9270 C.3   157  THR157      0.2028
     50  C         17.0300   40.5500   19.4130 C.2   157  THR157      0.2642
     51  O         16.6910   41.5620   18.7950 O.2   157  THR157     -0.2714
     52  CB        15.8560   40.7150   21.5890 C.3   157  THR157      0.1808
     53  OG1       16.0340   40.7520   23.0090 O.3   157  THR157     -0.2208
     54  CG2       14.9700   39.5490   21.2020 C.3   157  THR157      0.0379
     55  N         17.2500   39.3770   18.8260 N.am  158  ILE158     -0.1963
     56  CA        17.1260   39.1840   17.3800 C.3   158  ILE158      0.1727
     57  C         16.1560   38.0540   17.0220 C.2   158  ILE158      0.2616
     58  O         16.2550   36.9540   17.5590 O.2   158  ILE158     -0.2715
     59  CB        18.5150   38.8520   16.7570 C.3   158  ILE158      0.0290
     60  CG1       19.4730   40.0350   16.9590 C.3   158  ILE158      0.0022
     61  CG2       18.3680   38.4670   15.2780 C.3   158  ILE158      0.0023
     62  CD1       19.0320   41.3430   16.3080 C.3   158  ILE158      0.0001
     63  N         15.2140   38.3280   16.1240 N.am  159  SER159     -0.1950
     64  CA        14.2770   37.3020   15.6870 C.3   159  SER159      0.1924
     65  C         14.7260   36.9330   14.2790 C.2   159  SER159      0.2314
     66  O         15.1570   37.7940   13.4980 O.2   159  SER159     -0.2863
     67  CB        12.8380   37.8190   15.6800 C.3   159  SER159      0.2116
     68  OG        12.7330   39.0140   14.9420 O.3   159  SER159     -0.2180
     69  N         12.7100   40.5820    5.5500 N.3   193  LYS193     -0.1245
     70  CA        13.4310   40.7960    6.8060 C.3   193  LYS193      0.1561
     71  C         14.5990   41.7660    6.6430 C.2   193  LYS193      0.2260
     72  O         14.8570   42.5900    7.5210 O.2   193  LYS193     -0.2867
     73  CB        13.9500   39.4490    7.3180 C.3   193  LYS193      0.0271
     74  CG        14.6120   39.4890    8.6750 C.3   193  LYS193      0.0035
     75  CD        13.5850   39.7200    9.7510 C.3   193  LYS193      0.0206
     76  CE        14.2430   39.7770   11.0910 C.3   193  LYS193      0.1093
     77  NZ        13.2160   39.8810   12.1450 N.3   193  LYS193     -0.1314
     78  N         13.5650   45.3390    6.7300 N.3   196  MET196     -0.1230
     79  CA        13.3410   45.8190    8.0960 C.3   196  MET196      0.1702
     80  C         14.6320   46.4230    8.6790 C.2   196  MET196      0.2592
     81  O         14.6330   47.5620    9.1490 O.2   196  MET196     -0.2718
     82  CB        12.8210   44.6620    8.9660 C.3   196  MET196      0.0401
     83  CG        12.4340   45.0250   10.3990 C.3   196  MET196      0.0596
     84  SD        13.8380   45.2340   11.5040 S.3   196  MET196     -0.1393
     85  CE        14.4930   43.5700   11.5530 C.3   196  MET196      0.0692
     86  N         15.7330   45.6800    8.6320 N.am  197  TYR197     -0.1976
     87  CA        16.9820   46.2040    9.1520 C.3   197  TYR197      0.1639
     88  C         17.4060   47.4910    8.4480 C.2   197  TYR197      0.2290
     89  O         18.0600   48.3360    9.0550 O.2   197  TYR197     -0.2864
     90  CB        18.0970   45.1660    9.0340 C.3   197  TYR197      0.0560
     91  CG        17.9890   44.0470   10.0370 C.ar  197  TYR197     -0.0198
     92  CD1       17.6630   42.7500    9.6380 C.ar  197  TYR197     -0.0009
     93  CD2       18.2000   44.2840   11.3910 C.ar  197  TYR197     -0.0009
     94  CE1       17.5500   41.7130   10.5640 C.ar  197  TYR197      0.0417
     95  CE2       18.0880   43.2600   12.3280 C.ar  197  TYR197      0.0417
     96  CZ        17.7620   41.9730   11.9050 C.ar  197  TYR197      0.1957
     97  OH        17.6500   40.9600   12.8330 O.3   197  TYR197     -0.2866
     98  N         15.5760   50.4380    9.6470 N.3   200  LYS200     -0.1231
     99  CA        16.0430   50.7700   10.9940 C.3   200  LYS200      0.1693
    100  C         17.4800   51.3100   10.9550 C.2   200  LYS200      0.2593
    101  O         18.0780   51.5820   11.9980 O.2   200  LYS200     -0.2718
    102  CB        16.0440   49.5400   11.8980 C.3   200  LYS200      0.0285
    103  CG        14.7450   48.8030   12.0070 C.3   200  LYS200      0.0035
    104  CD        13.8750   49.3340   13.1090 C.3   200  LYS200      0.0206
    105  CE        12.8300   48.2880   13.4640 C.3   200  LYS200      0.1093
    106  NZ        11.7380   48.8400   14.3060 N.3   200  LYS200     -0.1314
    107  N         18.0400   51.4370    9.7570 N.am  201  GLY201     -0.1942
    108  CA        19.3940   51.9380    9.6250 C.3   201  GLY201      0.2014
    109  C         20.4130   51.0770   10.3350 C.2   201  GLY201      0.2640
    110  O         21.3340   51.5860   10.9680 O.2   201  GLY201     -0.2714
    111  N         20.2520   49.7630   10.2250 N.am  202  SER202     -0.1935
    112  CA        21.1520   48.8100   10.8710 C.3   202  SER202      0.2055
    113  C         22.5640   48.9300   10.3350 C.2   202  SER202      0.2644
    114  O         22.7780   49.2990    9.1790 O.2   202  SER202     -0.2714
    115  CB        20.6420   47.3770   10.6650 C.3   202  SER202      0.2130
    116  OG        21.5140   46.4190   11.2230 O.3   202  SER202     -0.2179
    117  N         23.5310   48.6020   11.1840 N.am  203  SER203     -0.1935
    118  CA        24.9340   48.6830   10.8030 C.3   203  SER203      0.2055
    119  C         25.3870   47.4340   10.0620 C.2   203  SER203      0.2642
    120  O         26.5440   47.3340    9.6710 O.2   203  SER203     -0.2714
    121  CB        25.8000   48.8970   12.0460 C.3   203  SER203      0.2130
    122  OG        25.7200   47.7930   12.9210 O.3   203  SER203     -0.2179
    123  N         24.4670   46.4920    9.8650 N.am  204  ALA204     -0.1977
    124  CA        24.7820   45.2490    9.1700 C.3   204  ALA204      0.1597
    125  C         24.6220   45.4100    7.6700 C.2   204  ALA204      0.2287
    126  O         25.1780   44.6360    6.8950 O.2   204  ALA204     -0.2864
    127  CB        23.8890   44.1270    9.6600 C.3   204  ALA204      0.0319
@<TRIPOS>BOND
     1    69    70    1
     2    71    70    1
     3    71    72    2
     4    78    79    1
     5    70    73    1
     6   126   125    2
     7    73    74    1
     8   125   124    1
     9    79    80    1
    10    79    82    1
    11    88    89    2
    12    88    87    1
    13    86    80   am
    14    86    87    1
    15    74    75    1
    16    80    81    2
    17    82    83    1
    18    90    87    1
    19    90    91    1
    20   124   127    1
    21   124   123    1
    22   114   113    2
    23   108   107    1
    24   108   109    1
    25    92    91   ar
    26    92    94   ar
    27    98    99    1
    28     4     3    2
    29   120   119    2
    30    75    76    1
    31   107   100   am
    32   123   119   am
    33    91    93   ar
    34   119   118    1
    35   111   109   am
    36   111   112    1
    37   109   110    2
    38   113   112    1
    39   113   117   am
    40    83    84    1
    41    94    96   ar
    42     3     2    1
    43   115   112    1
    44   115   116    1
    45   118   117    1
    46   118   121    1
    47   100    99    1
    48   100   101    2
    49    99   102    1
    50    76    77    1
    51     5     2    1
    52     5     6    1
    53    93    95   ar
    54    84    85    1
    55     2     1    1
    56   102   103    1
    57    96    95   ar
    58    96    97    1
    59   103   104    1
    60   121   122    1
    61     6     7    1
    62   104   105    1
    63     7     8    1
    64   105   106    1
    65    66    65    2
    66    65    64    1
    67     8     9    2
    68    68    67    1
    69    61    59    1
    70     9    10    1
    71     9    11    1
    72    67    64    1
    73    64    63    1
    74    63    57   am
    75    62    60    1
    76    59    60    1
    77    59    56    1
    78    57    56    1
    79    57    58    2
    80    56    55    1
    81    12    13    1
    82    51    50    2
    83    55    50   am
    84    17    16    1
    85    13    16    1
    86    13    14    1
    87    45    46    1
    88    45    44    1
    89    46    47    1
    90    50    49    1
    91    16    18    1
    92    14    15    2
    93    43    44    1
    94    43    40    1
    95    42    41    2
    96    49    48    1
    97    49    52    1
    98    41    48   am
    99    41    40    1
   100    54    52    1
   101    40    39    1
   102    52    53    1
   103    37    36    2
   104    39    32   am
   105    19    20    1
   106    36    35    1
   107    36    38   am
   108    34    35    1
   109    34    31    1
   110    32    31    1
   111    32    33    2
   112    31    30    1
   113    29    27    1
   114    28    27    1
   115    20    21    1
   116    20    23    1
   117    27    26    2
   118    24    23    1
   119    24    25    1
   120    21    22    2
   121    26    25    1
