@<TRIPOS>MOLECULE
tmp/1xxvA00.pdb
 145 138 0 0 0
SMALL
GASTEIGER

@<TRIPOS>ATOM
      1  N         34.3800   18.2140   19.9280 N.3    39  LYS39      -0.1245
      2  CA        34.0900   17.7350   18.5850 C.3    39  LYS39       0.1561
      3  C         33.5620   18.8670   17.7080 C.2    39  LYS39       0.2260
      4  O         32.6230   19.5780   18.0700 O.2    39  LYS39      -0.2867
      5  CB        33.0790   16.5910   18.6410 C.3    39  LYS39       0.0271
      6  CG        32.8560   15.8900   17.3110 C.3    39  LYS39       0.0035
      7  CD        31.9700   14.6640   17.4880 C.3    39  LYS39       0.0206
      8  CE        31.7330   13.9210   16.1800 C.3    39  LYS39       0.1093
      9  NZ        30.8760   12.7130   16.3850 N.3    39  LYS39      -0.1314
     10  N         30.6950   17.0040   12.2640 N.3    42  ARG42      -0.1231
     11  CA        29.6480   16.0140   12.4900 C.3    42  ARG42       0.1694
     12  C         30.1010   14.7400   11.7770 C.2    42  ARG42       0.2592
     13  O         29.7100   13.6320   12.1410 O.2    42  ARG42      -0.2718
     14  CB        28.3330   16.5090   11.8950 C.3    42  ARG42       0.0321
     15  CG        27.1510   15.5990   12.1130 C.3    42  ARG42       0.0489
     16  CD        25.8870   16.2540   11.5750 C.3    42  ARG42       0.2205
     17  NE        24.7530   16.0470   12.4770 N.pl3  42  ARG42      -0.0865
     18  CZ        24.5920   16.6750   13.6390 C.cat  42  ARG42       0.5346
     19  NH1       25.4760   17.5650   14.0550 N.pl3  42  ARG42       0.1354
     20  NH2       23.5580   16.3950   14.4030 N.pl3  42  ARG42       0.1354
     21  N         30.9310   14.9190   10.7530 N.am   43  PHE43      -0.1962
     22  CA        31.4670   13.8100    9.9860 C.3    43  PHE43       0.1771
     23  C         32.9370   14.0790    9.7140 C.2    43  PHE43       0.2619
     24  O         33.3100   15.1890    9.3580 O.2    43  PHE43      -0.2715
     25  CB        30.7200   13.6640    8.6640 C.3    43  PHE43       0.0574
     26  CG        29.2360   13.5490    8.8160 C.ar   43  PHE43      -0.0200
     27  CD1       28.4150   14.6510    8.6010 C.ar   43  PHE43      -0.0042
     28  CD2       28.6540   12.3410    9.1680 C.ar   43  PHE43      -0.0042
     29  CE1       27.0360   14.5490    8.7300 C.ar   43  PHE43      -0.0003
     30  CE2       27.2760   12.2350    9.2990 C.ar   43  PHE43      -0.0003
     31  CZ        26.4670   13.3470    9.0780 C.ar   43  PHE43      -0.0000
     32  N         33.7670   13.0600    9.8800 N.am   44  ARG44      -0.1963
     33  CA        35.1950   13.2090    9.6650 C.3    44  ARG44       0.1729
     34  C         35.5590   13.4550    8.2040 C.2    44  ARG44       0.2616
     35  O         36.6750   13.8740    7.9080 O.2    44  ARG44      -0.2715
     36  CB        35.9190   11.9700   10.1900 C.3    44  ARG44       0.0348
     37  CG        35.3200   10.6540    9.6950 C.3    44  ARG44       0.0492
     38  CD        36.1030    9.4320   10.1940 C.3    44  ARG44       0.2205
     39  NE        37.5150    9.4870    9.8040 N.pl3  44  ARG44      -0.0865
     40  CZ        37.9610    9.4570    8.5480 C.cat  44  ARG44       0.5346
     41  NH1       37.1080    9.3650    7.5310 N.pl3  44  ARG44       0.1354
     42  NH2       39.2680    9.5300    8.3100 N.pl3  44  ARG44       0.1354
     43  N         34.6230   13.2000    7.2930 N.am   45  ASP45      -0.1957
     44  CA        34.8730   13.4020    5.8640 C.3    45  ASP45       0.1840
     45  C         34.2640   14.7020    5.3150 C.2    45  ASP45       0.2621
     46  O         34.5880   15.1350    4.2070 O.2    45  ASP45      -0.2715
     47  CB        34.3750   12.1860    5.0660 C.3    45  ASP45       0.1450
     48  CG        32.9710   11.7570    5.4560 C.2    45  ASP45       0.3671
     49  OD1       32.6710   11.7050    6.6730 O.co2  45  ASP45      -0.2456
     50  OD2       32.1710   11.4470    4.5440 O.co2  45  ASP45      -0.2456
     51  N         33.3920   15.3240    6.1020 N.am   46  ILE46      -0.1977
     52  CA        32.7600   16.5790    5.7180 C.3    46  ILE46       0.1596
     53  C         33.3780   17.6930    6.5500 C.2    46  ILE46       0.2287
     54  O         32.9200   17.9980    7.6530 O.2    46  ILE46      -0.2864
     55  CB        31.2570   16.5330    5.9820 C.3    46  ILE46       0.0276
     56  CG1       30.6270   15.4120    5.1460 C.3    46  ILE46       0.0022
     57  CG2       30.6350   17.8870    5.6750 C.3    46  ILE46       0.0022
     58  CD1       30.6690   15.6460    3.6550 C.3    46  ILE46       0.0001
     59  N         17.4430   12.6810    2.8050 N.3   170  ASP170     -0.1225
     60  CA        18.8450   12.8740    2.4740 C.3   170  ASP170      0.1805
     61  C         19.2680   12.0710    1.2620 C.2   170  ASP170      0.2597
     62  O         18.6160   11.1010    0.8700 O.2   170  ASP170     -0.2718
     63  CB        19.7350   12.5170    3.6670 C.3   170  ASP170      0.1424
     64  CG        19.7000   11.0400    4.0050 C.2   170  ASP170      0.3668
     65  OD1       20.4130   10.2450    3.3420 O.co2 170  ASP170     -0.2456
     66  OD2       18.9490   10.6730    4.9400 O.co2 170  ASP170     -0.2456
     67  N         20.3770   12.5040    0.6770 N.am  171  GLN171     -0.1979
     68  CA        20.9450   11.8700   -0.4980 C.3   171  GLN171      0.1601
     69  C         19.9480   11.7310   -1.6380 C.2   171  GLN171      0.2287
     70  O         20.0380   10.8050   -2.4400 O.2   171  GLN171     -0.2864
     71  CB        21.5300   10.5070   -0.1270 C.3   171  GLN171      0.0394
     72  CG        22.6680   10.5900    0.8770 C.3   171  GLN171      0.0908
     73  CD        23.6640    9.4730    0.6900 C.2   171  GLN171      0.2608
     74  OE1       24.2710    9.3520   -0.3730 O.2   171  GLN171     -0.2717
     75  NE2       23.8390    8.6470    1.7180 N.am  171  GLN171     -0.0878
     76  N         21.4540   21.4420    5.9400 N.3   217  CYS217     -0.1221
     77  CA        20.6660   20.2130    5.9160 C.3   217  CYS217      0.1808
     78  C         21.2500   19.3800    7.0430 C.2   217  CYS217      0.2601
     79  O         21.1320   19.7620    8.2090 O.2   217  CYS217     -0.2717
     80  CB        20.8040   19.4870    4.5670 C.3   217  CYS217      0.0970
     81  SG        22.4430   19.4990    3.8080 S.3   217  CYS217     -0.0800
     82  N         21.8770   18.2520    6.7290 N.am  218  ARG218     -0.1965
     83  CA        22.4820   17.4670    7.7940 C.3   218  ARG218      0.1729
     84  C         23.9900   17.6850    7.7620 C.2   218  ARG218      0.2616
     85  O         24.5810   18.0990    8.7530 O.2   218  ARG218     -0.2715
     86  CB        22.1760   15.9780    7.6440 C.3   218  ARG218      0.0348
     87  CG        22.5820   15.1870    8.8820 C.3   218  ARG218      0.0492
     88  CD        22.4240   13.6880    8.7200 C.3   218  ARG218      0.2205
     89  NE        22.9350   12.9900    9.8930 N.pl3 218  ARG218     -0.0865
     90  CZ        23.0340   11.6690    9.9940 C.cat 218  ARG218      0.5346
     91  NH1       22.6580   10.8890    8.9910 N.pl3 218  ARG218      0.1354
     92  NH2       23.5190   11.1230   11.1010 N.pl3 218  ARG218      0.1354
     93  N         24.6080   17.4080    6.6170 N.am  219  ALA219     -0.1977
     94  CA        26.0420   17.5860    6.4750 C.3   219  ALA219      0.1597
     95  C         26.3310   18.9670    5.9000 C.2   219  ALA219      0.2287
     96  O         27.4320   19.5030    6.0620 O.2   219  ALA219     -0.2864
     97  CB        26.6040   16.5130    5.5750 C.3   219  ALA219      0.0319
     98  N         26.1500   19.7430    2.5730 N.3   221  VAL221     -0.1231
     99  CA        26.8760   19.6150    1.3120 C.3   221  VAL221      0.1692
    100  C         26.0180   19.1000    0.1550 C.2   221  VAL221      0.2593
    101  O         26.3030   19.3710   -1.0160 O.2   221  VAL221     -0.2718
    102  CB        28.1040   18.6830    1.4750 C.3   221  VAL221      0.0266
    103  CG1       29.0550   19.2730    2.5160 C.3   221  VAL221      0.0020
    104  CG2       27.6530   17.2860    1.8970 C.3   221  VAL221      0.0020
    105  N         24.9650   18.3590    0.4870 N.am  222  GLY222     -0.1942
    106  CA        24.0800   17.8210   -0.5350 C.3   222  GLY222      0.2014
    107  C         22.8800   18.7130   -0.7960 C.2   222  GLY222      0.2638
    108  O         22.8760   19.5150   -1.7260 O.2   222  GLY222     -0.2714
    109  N         21.8550   18.5710    0.0340 N.am  223  ARG223     -0.1977
    110  CA        20.6480   19.3650   -0.1050 C.3   223  ARG223      0.1597
    111  C         20.9030   20.8690   -0.0130 C.2   223  ARG223      0.2287
    112  O         20.2560   21.6600   -0.6950 O.2   223  ARG223     -0.2864
    113  CB        19.6300   18.9290    0.9490 C.3   223  ARG223      0.0334
    114  CG        19.0470   17.5590    0.6670 C.3   223  ARG223      0.0492
    115  CD        18.3450   16.9730    1.8720 C.3   223  ARG223      0.2205
    116  NE        19.2990   16.4810    2.8590 N.pl3 223  ARG223     -0.0865
    117  CZ        18.9470   15.9250    4.0120 C.cat 223  ARG223      0.5346
    118  NH1       17.6610   15.7980    4.3060 N.pl3 223  ARG223      0.1354
    119  NH2       19.8760   15.5030    4.8670 N.pl3 223  ARG223      0.1354
    120  N         32.8900   18.3510   -1.4610 N.3   257  ILE257     -0.1245
    121  CA        31.7060   17.5000   -1.4410 C.3   257  ILE257      0.1561
    122  C         30.4330   18.2400   -1.8590 C.2   257  ILE257      0.2260
    123  O         29.4360   17.6110   -2.2140 O.2   257  ILE257     -0.2867
    124  CB        31.4610   16.9080   -0.0300 C.3   257  ILE257      0.0252
    125  CG1       32.7690   16.3750    0.5530 C.3   257  ILE257      0.0019
    126  CG2       30.4190   15.7920   -0.1130 C.3   257  ILE257      0.0019
    127  CD1       33.3650   15.2550   -0.2580 C.3   257  ILE257      0.0001
    128  N         26.5880   16.6760   -3.5350 N.3   260  GLN260     -0.1245
    129  CA        26.9670   15.2840   -3.4080 C.3   260  GLN260      0.1566
    130  C         26.4530   14.3720   -4.5050 C.2   260  GLN260      0.2260
    131  O         27.2230   13.9050   -5.3310 O.2   260  GLN260     -0.2867
    132  CB        26.5030   14.7400   -2.0630 C.3   260  GLN260      0.0367
    133  CG        27.0290   13.3500   -1.8010 C.3   260  GLN260      0.0905
    134  CD        26.1420   12.5590   -0.8760 C.2   260  GLN260      0.2608
    135  OE1       24.9790   12.2940   -1.1960 O.2   260  GLN260     -0.2717
    136  NE2       26.6810   12.1640    0.2800 N.am  260  GLN260     -0.0878
    137  N         21.4600   15.5500   -7.8710 N.3   264  GLN264     -0.1245
    138  CA        21.3240   16.9270   -7.4280 C.3   264  GLN264      0.1566
    139  C         21.9250   17.8490   -8.4770 C.2   264  GLN264      0.2260
    140  O         21.3180   18.8510   -8.8380 O.2   264  GLN264     -0.2867
    141  CB        22.0060   17.1190   -6.0760 C.3   264  GLN264      0.0367
    142  CG        21.5150   16.1580   -5.0300 C.3   264  GLN264      0.0905
    143  CD        22.2780   16.2810   -3.7340 C.2   264  GLN264      0.2608
    144  OE1       23.5140   16.2630   -3.7160 O.2   264  GLN264     -0.2717
    145  NE2       21.5450   16.3950   -2.6330 N.am  264  GLN264     -0.0878
@<TRIPOS>BOND
     1   140   139    2
     2   139   138    1
     3   137   138    1
     4   138   141    1
     5   141   142    1
     6   131   130    2
     7   142   143    1
     8   130   129    1
     9   143   144    2
    10   143   145   am
    11   128   129    1
    12   129   132    1
    13    70    69    2
    14   123   122    2
    15   132   133    1
    16   122   121    1
    17   133   134    1
    18   108   107    2
    19    69    68    1
    20   120   121    1
    21   121   124    1
    22   135   134    2
    23   101   100    2
    24   134   136   am
    25   107   106    1
    26   107   109   am
    27   112   111    2
    28   106   105    1
    29    68    71    1
    30    68    67    1
    31    74    73    2
    32   127   125    1
    33    71    72    1
    34   126   124    1
    35   110   111    1
    36   110   109    1
    37   110   113    1
    38   124   125    1
    39   100   105   am
    40   100    99    1
    41   114   113    1
    42   114   115    1
    43    67    61   am
    44    73    72    1
    45    73    75   am
    46    62    61    2
    47    61    60    1
    48    99   102    1
    49    99    98    1
    50   102   104    1
    51   102   103    1
    52   115   116    1
    53    60    59    1
    54    60    63    1
    55   116   117    2
    56    65    64   ar
    57    58    56    1
    58    63    64    1
    59    81    80    1
    60    64    66   ar
    61   117   118    1
    62   117   119    1
    63    46    45    2
    64    50    48   ar
    65    80    77    1
    66    47    48    1
    67    47    44    1
    68    56    55    1
    69    45    44    1
    70    45    51   am
    71    48    49   ar
    72    97    94    1
    73    57    55    1
    74    52    55    1
    75    52    51    1
    76    52    53    1
    77    44    43    1
    78    95    96    2
    79    95    94    1
    80    77    76    1
    81    77    78    1
    82    94    93    1
    83    53    54    2
    84    93    84   am
    85    82    78   am
    86    82    83    1
    87    78    79    2
    88    43    34   am
    89    41    40    1
    90    86    83    1
    91    86    87    1
    92    84    83    1
    93    84    85    2
    94    35    34    2
    95    34    33    1
    96    42    40    1
    97    40    39    2
    98    27    29   ar
    99    27    26   ar
   100    25    26    1
   101    25    22    1
   102    88    87    1
   103    88    89    1
   104    29    31   ar
   105    26    28   ar
   106    91    90    1
   107    31    30   ar
   108    28    30   ar
   109    24    23    2
   110    33    32    1
   111    33    36    1
   112    37    36    1
   113    37    38    1
   114    23    32   am
   115    23    22    1
   116    39    38    1
   117    89    90    2
   118    22    21    1
   119    90    92    1
   120    21    12   am
   121    16    15    1
   122    16    17    1
   123    12    13    2
   124    12    11    1
   125    14    15    1
   126    14    11    1
   127    10    11    1
   128    17    18    2
   129    18    19    1
   130    18    20    1
   131     8     9    1
   132     8     7    1
   133     6     7    1
   134     6     5    1
   135     3     4    2
   136     3     2    1
   137     2     5    1
   138     2     1    1
