@<TRIPOS>MOLECULE
tmp/1xybB00.pdb
 155 146 0 0 0
SMALL
GASTEIGER

@<TRIPOS>ATOM
      1  N         24.4750  -11.2780  -34.0610 N.3    15  TRP15      -0.1241
      2  CA        24.1850  -10.3770  -32.9710 C.3    15  TRP15       0.1605
      3  C         23.2160  -10.9380  -31.9110 C.2    15  TRP15       0.2264
      4  O         23.0040  -10.2620  -30.8910 O.2    15  TRP15      -0.2867
      5  CB        23.6160   -9.1010  -33.5750 C.3    15  TRP15       0.0550
      6  CG        22.1930   -9.2290  -34.1820 C.ar   15  TRP15       0.0003
      7  CD1       21.0710   -9.0080  -33.4060 C.ar   15  TRP15       0.0946
      8  CD2       21.8590   -9.5570  -35.4900 C.ar   15  TRP15       0.0152
      9  NE1       20.0490   -9.1950  -34.2000 N.ar   15  TRP15      -0.2442
     10  CE2       20.4670   -9.5220  -35.4420 C.ar   15  TRP15       0.0810
     11  CE3       22.4970   -9.8610  -36.6860 C.ar   15  TRP15       0.0012
     12  CZ2       19.7060   -9.7890  -36.5690 C.ar   15  TRP15       0.0191
     13  CZ3       21.7330  -10.1180  -37.8150 C.ar   15  TRP15       0.0001
     14  CH2       20.3510  -10.0840  -37.7520 C.ar   15  TRP15       0.0015
     15  N         24.9320   -8.2700  -39.6880 N.3    53  HIS53      -0.1241
     16  CA        25.0450   -6.8630  -40.0260 C.3    53  HIS53       0.1621
     17  C         26.5060   -6.7840  -40.4480 C.2    53  HIS53       0.2264
     18  O         27.3340   -7.5500  -39.9330 O.2    53  HIS53      -0.2867
     19  CB        24.9200   -5.8960  -38.8460 C.3    53  HIS53       0.0745
     20  CG        23.5590   -5.8740  -38.1780 C.ar   53  HIS53       0.0817
     21  ND1       23.0690   -6.7360  -37.2820 N.ar   53  HIS53      -0.2268
     22  CD2       22.5950   -4.9320  -38.4560 C.ar   53  HIS53       0.1154
     23  CE1       21.8450   -6.3550  -37.0150 C.ar   53  HIS53       0.1986
     24  NE2       21.5720   -5.2820  -37.7220 N.ar   53  HIS53      -0.2212
     25  N         20.3920  -14.2220  -45.4380 N.3    87  MET87      -0.1245
     26  CA        20.0700  -12.8110  -45.3250 C.3    87  MET87       0.1570
     27  C         21.2010  -12.0180  -44.7070 C.2    87  MET87       0.2261
     28  O         21.9770  -12.5480  -43.9160 O.2    87  MET87      -0.2867
     29  CB        18.7690  -12.7080  -44.4870 C.3    87  MET87       0.0387
     30  CG        18.2470  -11.2940  -44.1780 C.3    87  MET87       0.0595
     31  SD        19.0640  -10.4370  -42.7880 S.3    87  MET87      -0.1393
     32  CE        18.1560  -11.0610  -41.3880 C.3    87  MET87       0.0692
     33  N         22.2990   -7.5320  -43.6090 N.3    89  THR89      -0.1203
     34  CA        21.7040   -6.2330  -43.3440 C.3    89  THR89       0.1994
     35  C         22.8590   -5.3430  -42.9600 C.2    89  THR89       0.2618
     36  O         24.0100   -5.7750  -42.8290 O.2    89  THR89      -0.2717
     37  CB        20.6170   -6.4060  -42.1950 C.3    89  THR89       0.1784
     38  OG1       20.0140   -5.1270  -41.9640 O.3    89  THR89      -0.2211
     39  CG2       21.1890   -6.9830  -40.9050 C.3    89  THR89       0.0376
     40  N         22.5700   -4.0650  -42.8350 N.am   90  THR90      -0.1952
     41  CA        23.5740   -3.0580  -42.5710 C.3    90  THR90       0.1897
     42  C         23.3790   -2.5500  -41.1390 C.2    90  THR90       0.2313
     43  O         22.2340   -2.4300  -40.6990 O.2    90  THR90      -0.2863
     44  CB        23.4170   -1.8220  -43.5040 C.3    90  THR90       0.1794
     45  OG1       22.9400   -2.2990  -44.7510 O.3    90  THR90      -0.2208
     46  CG2       24.6990   -1.0510  -43.7260 C.3    90  THR90       0.0378
     47  N         22.6110    2.2040  -37.1530 N.3    93  PHE93      -0.1241
     48  CA        22.0540    2.6880  -35.8970 C.3    93  PHE93       0.1605
     49  C         23.0530    2.8290  -34.7370 C.2    93  PHE93       0.2264
     50  O         22.8610    3.7020  -33.8940 O.2    93  PHE93      -0.2867
     51  CB        20.8970    1.7380  -35.5490 C.3    93  PHE93       0.0534
     52  CG        21.2280    0.2480  -35.5670 C.ar   93  PHE93      -0.0203
     53  CD1       21.7880   -0.3760  -34.4750 C.ar   93  PHE93      -0.0042
     54  CD2       20.9130   -0.4980  -36.6750 C.ar   93  PHE93      -0.0042
     55  CE1       22.0300   -1.7330  -34.4840 C.ar   93  PHE93      -0.0003
     56  CE2       21.1510   -1.8480  -36.6780 C.ar   93  PHE93      -0.0003
     57  CZ        21.7050   -2.4650  -35.5920 C.ar   93  PHE93      -0.0000
     58  N         17.7970   -7.1350  -45.5730 N.3   134  VAL134     -0.1245
     59  CA        16.9100   -6.4460  -44.6320 C.3   134  VAL134      0.1561
     60  C         17.3670   -5.0330  -44.3420 C.2   134  VAL134      0.2260
     61  O         18.5650   -4.7520  -44.2780 O.2   134  VAL134     -0.2867
     62  CB        16.8210   -7.2410  -43.2980 C.3   134  VAL134      0.0252
     63  CG1       16.1520   -6.4560  -42.1580 C.3   134  VAL134      0.0019
     64  CG2       15.9960   -8.4740  -43.5830 C.3   134  VAL134      0.0019
     65  N         16.4080   -2.3030  -41.4100 N.3   136  TRP136     -0.1241
     66  CA        15.7020   -1.8810  -40.2010 C.3   136  TRP136      0.1605
     67  C         16.1250   -0.4480  -39.9630 C.2   136  TRP136      0.2264
     68  O         17.2580   -0.1990  -39.5580 O.2   136  TRP136     -0.2867
     69  CB        16.0750   -2.7270  -38.9540 C.3   136  TRP136      0.0550
     70  CG        15.4930   -2.1760  -37.6360 C.ar  136  TRP136      0.0003
     71  CD1       14.1350   -2.0120  -37.3990 C.ar  136  TRP136      0.0946
     72  CD2       16.2390   -1.7530  -36.5690 C.ar  136  TRP136      0.0152
     73  NE1       14.0320   -1.4780  -36.1940 N.ar  136  TRP136     -0.2442
     74  CE2       15.2620   -1.3150  -35.6760 C.ar  136  TRP136      0.0810
     75  CE3       17.5700   -1.6800  -36.2460 C.ar  136  TRP136      0.0012
     76  CZ2       15.6070   -0.7920  -34.4390 C.ar  136  TRP136      0.0191
     77  CZ3       17.9110   -1.1570  -35.0050 C.ar  136  TRP136      0.0001
     78  CH2       16.9480   -0.7170  -34.1060 C.ar  136  TRP136      0.0015
     79  N         12.0530   -3.8940  -42.2480 N.3   180  GLU180     -0.1245
     80  CA        11.7010   -4.4000  -40.9280 C.3   180  GLU180      0.1567
     81  C         11.0490   -3.2900  -40.1080 C.2   180  GLU180      0.2260
     82  O         11.7950   -2.4000  -39.6660 O.2   180  GLU180     -0.2867
     83  CB        12.9520   -4.8740  -40.2630 C.3   180  GLU180      0.0388
     84  CG        12.4990   -5.6820  -39.0920 C.3   180  GLU180      0.1160
     85  CD        13.6410   -6.1850  -38.2730 C.2   180  GLU180      0.3649
     86  OE1       14.5860   -6.7690  -38.8010 O.co2 180  GLU180     -0.2457
     87  OE2       13.5540   -5.9620  -37.0840 O.co2 180  GLU180     -0.2457
     88  N          9.1910   -1.1910  -36.8880 N.3   182  LYS182     -0.1245
     89  CA         9.2780   -1.1570  -35.4410 C.3   182  LYS182      0.1561
     90  C          8.6540    0.1800  -35.0280 C.2   182  LYS182      0.2260
     91  O          8.9420    1.2180  -35.6390 O.2   182  LYS182     -0.2867
     92  CB        10.7380   -1.2590  -34.9970 C.3   182  LYS182      0.0271
     93  CG        10.8430   -1.4750  -33.4790 C.3   182  LYS182      0.0035
     94  CD        12.3150   -1.5620  -33.0670 C.3   182  LYS182      0.0206
     95  CE        12.3770   -1.8630  -31.5520 C.3   182  LYS182      0.1093
     96  NZ        13.7510   -1.9730  -31.0940 N.3   182  LYS182     -0.1314
     97  N          9.9050   -7.7180  -43.4920 N.3   214  ASN214     -0.1240
     98  CA        10.5180   -8.6460  -42.5640 C.3   214  ASN214      0.1653
     99  C          9.8880   -8.2630  -41.2030 C.2   214  ASN214      0.2266
    100  O         10.4900   -7.4850  -40.4430 O.2   214  ASN214     -0.2867
    101  CB        12.0370   -8.4280  -42.5220 C.3   214  ASN214      0.1155
    102  CG        12.6650   -9.3710  -41.5340 C.2   214  ASN214      0.2627
    103  OD1       12.2860  -10.5330  -41.4660 O.2   214  ASN214     -0.2716
    104  ND2       13.6010   -8.9410  -40.6960 N.am  214  ASN214     -0.0877
    105  N          8.6230   -8.5200  -37.2720 N.3   216  GLU216     -0.1245
    106  CA         9.1440   -9.1880  -36.0870 C.3   216  GLU216      0.1567
    107  C          8.0650   -9.3240  -35.0440 C.2   216  GLU216      0.2260
    108  O          7.4080   -8.3150  -34.7800 O.2   216  GLU216     -0.2867
    109  CB        10.3110   -8.3920  -35.4930 C.3   216  GLU216      0.0388
    110  CG        10.9380   -9.2140  -34.3630 C.3   216  GLU216      0.1160
    111  CD        12.0550   -8.5040  -33.6380 C.2   216  GLU216      0.3649
    112  OE1       13.1290   -8.4580  -34.1430 O.co2 216  GLU216     -0.2457
    113  OE2       11.8640   -8.0070  -32.5430 O.co2 216  GLU216     -0.2457
    114  N          7.8910   -6.5500  -32.2560 N.3   219  HIS219     -0.1241
    115  CA         7.6740   -5.1780  -32.7150 C.3   219  HIS219      0.1621
    116  C          6.2230   -4.8290  -32.9040 C.2   219  HIS219      0.2264
    117  O          5.8330   -3.7290  -32.5170 O.2   219  HIS219     -0.2867
    118  CB         8.3510   -4.9200  -34.0400 C.3   219  HIS219      0.0745
    119  CG         9.8500   -4.9780  -33.9850 C.ar  219  HIS219      0.0817
    120  ND1       10.6720   -4.6850  -34.9600 N.ar  219  HIS219     -0.2268
    121  CD2       10.6320   -5.2720  -32.9010 C.ar  219  HIS219      0.1154
    122  CE1       11.9000   -4.7680  -34.5310 C.ar  219  HIS219      0.1986
    123  NE2       11.8900   -5.1160  -33.2610 N.ar  219  HIS219     -0.2212
    124  N         11.1310  -12.3830  -38.5720 N.3   244  ASP244     -0.1239
    125  CA        11.9060  -12.4600  -37.3300 C.3   244  ASP244      0.1674
    126  C         11.0700  -12.9390  -36.1820 C.2   244  ASP244      0.2266
    127  O         10.0700  -12.3180  -35.8330 O.2   244  ASP244     -0.2867
    128  CB        12.4450  -11.1270  -36.9910 C.3   244  ASP244      0.1410
    129  CG        13.6640  -10.7470  -37.8080 C.2   244  ASP244      0.3668
    130  OD1       14.2020  -11.4970  -38.6020 O.co2 244  ASP244     -0.2456
    131  OD2       14.1100   -9.6440  -37.6950 O.co2 244  ASP244     -0.2456
    132  N         11.5590   -3.1530  -25.9950 N.3   254  ASP254     -0.1239
    133  CA        11.7560   -4.3190  -26.8100 C.3   254  ASP254      0.1674
    134  C         12.5910   -5.4180  -26.1450 C.2   254  ASP254      0.2266
    135  O         13.8000   -5.2990  -25.9810 O.2   254  ASP254     -0.2867
    136  CB        12.3080   -3.6610  -28.0240 C.3   254  ASP254      0.1410
    137  CG        12.5430   -4.6270  -29.1080 C.2   254  ASP254      0.3668
    138  OD1       11.6800   -5.5050  -29.3330 O.co2 254  ASP254     -0.2456
    139  OD2       13.6140   -4.4750  -29.6930 O.co2 254  ASP254     -0.2456
    140  N         12.9810   -8.9380  -26.9460 N.3   256  ASP256     -0.1239
    141  CA        13.6150  -10.0060  -27.7220 C.3   256  ASP256      0.1674
    142  C         13.8080  -11.2940  -26.9690 C.2   256  ASP256      0.2266
    143  O         14.9110  -11.8390  -26.9430 O.2   256  ASP256     -0.2867
    144  CB        14.9770   -9.5450  -28.2360 C.3   256  ASP256      0.1410
    145  CG        14.8470   -8.4640  -29.2800 C.2   256  ASP256      0.3668
    146  OD1       13.7360   -8.2690  -29.7830 O.co2 256  ASP256     -0.2456
    147  OD2       15.8610   -7.8290  -29.5840 O.co2 256  ASP256     -0.2456
    148  N         15.4680  -13.5450  -34.1490 N.3   286  ASP286     -0.1239
    149  CA        16.1530  -12.3670  -33.7350 C.3   286  ASP286      0.1674
    150  C         15.7830  -12.1300  -32.2530 C.2   286  ASP286      0.2266
    151  O         14.8130  -11.4520  -31.9190 O.2   286  ASP286     -0.2867
    152  CB        15.7370  -11.1780  -34.5980 C.3   286  ASP286      0.1410
    153  CG        16.5130   -9.9230  -34.2160 C.2   286  ASP286      0.3668
    154  OD1       17.4770   -9.9350  -33.4590 O.co2 286  ASP286     -0.2456
    155  OD2       16.1490   -8.8680  -34.6520 O.co2 286  ASP286     -0.2456
@<TRIPOS>BOND
     1    58    59    1
     2    25    26    1
     3    26    27    1
     4    26    29    1
     5    45    44    1
     6    27    28    2
     7    59    60    1
     8    59    62    1
     9    29    30    1
    10    60    61    2
    11    30    31    1
    12    46    44    1
    13    33    34    1
    14    64    62    1
    15    44    41    1
    16    97    98    1
    17    34    35    1
    18    34    37    1
    19    62    63    1
    20    35    40   am
    21    35    36    2
    22    40    41    1
    23    31    32    1
    24    41    42    1
    25    98   101    1
    26    98    99    1
    27   101   102    1
    28    79    80    1
    29    37    38    1
    30    37    39    1
    31   102   103    2
    32   102   104   am
    33    65    66    1
    34    99   100    2
    35    42    43    2
    36    80    83    1
    37    80    81    1
    38    17    16    1
    39    17    18    2
    40    83    84    1
    41    66    67    1
    42    66    69    1
    43    81    82    2
    44    16    15    1
    45    16    19    1
    46    67    68    2
    47    84    85    1
    48    69    70    1
    49    19    20    1
    50    86    85   ar
    51   130   129   ar
    52   124   125    1
    53    22    20   ar
    54    22    24   ar
    55    85    87   ar
    56    20    21   ar
    57    13    14   ar
    58    13    11   ar
    59   129   131   ar
    60   129   128    1
    61    14    12   ar
    62    24    23   ar
    63    70    71   ar
    64    70    72   ar
    65    71    73   ar
    66   125   128    1
    67   125   126    1
    68    21    23   ar
    69   105   106    1
    70    47    48    1
    71    88    89    1
    72    11     8   ar
    73    56    54   ar
    74    56    57   ar
    75    54    52   ar
    76    72    75   ar
    77    72    74   ar
    78    12    10   ar
    79    75    77   ar
    80    73    74   ar
    81   126   127    2
    82   106   109    1
    83   106   107    1
    84    48    51    1
    85    48    49    1
    86    74    76   ar
    87    91    90    2
    88    57    55   ar
    89    52    51    1
    90    52    53   ar
    91   109   110    1
    92     8    10   ar
    93     8     6   ar
    94    10     9   ar
    95    89    90    1
    96    89    92    1
    97   107   108    2
    98    77    78   ar
    99    92    93    1
   100   120   122   ar
   101   120   119   ar
   102    49    50    2
   103   155   153   ar
   104   152   153    1
   105   152   149    1
   106   122   123   ar
   107    55    53   ar
   108    76    78   ar
   109   110   111    1
   110   153   154   ar
   111     9     7   ar
   112     6     5    1
   113     6     7   ar
   114   148   149    1
   115   112   111   ar
   116     1     2    1
   117   118   119    1
   118   118   115    1
   119   119   121   ar
   120   149   150    1
   121   111   113   ar
   122     5     2    1
   123    93    94    1
   124   123   121   ar
   125    94    95    1
   126     2     3    1
   127   116   115    1
   128   116   117    2
   129   115   114    1
   130   150   151    2
   131     3     4    2
   132    95    96    1
   133   146   145   ar
   134   139   137   ar
   135   147   145   ar
   136   138   137   ar
   137   145   144    1
   138   137   136    1
   139   144   141    1
   140   136   133    1
   141   141   142    1
   142   141   140    1
   143   142   143    2
   144   133   134    1
   145   133   132    1
   146   134   135    2
