@<TRIPOS>MOLECULE
tmp/1xycA00.pdb
 164 154 0 0 0
SMALL
GASTEIGER

@<TRIPOS>ATOM
      1  N         23.9830   12.3020  -13.2590 N.3    15  TRP15      -0.1241
      2  CA        23.7170   11.3910  -14.3650 C.3    15  TRP15       0.1605
      3  C         22.7360   11.8880  -15.4360 C.2    15  TRP15       0.2264
      4  O         22.5550   11.1980  -16.4400 O.2    15  TRP15      -0.2867
      5  CB        23.1910   10.0660  -13.7840 C.3    15  TRP15       0.0550
      6  CG        21.7740   10.1180  -13.1710 C.ar   15  TRP15       0.0003
      7  CD1       20.6630    9.8660  -13.9420 C.ar   15  TRP15       0.0946
      8  CD2       21.4460   10.4170  -11.8530 C.ar   15  TRP15       0.0152
      9  NE1       19.6420   10.0030  -13.1390 N.ar   15  TRP15      -0.2442
     10  CE2       20.0430   10.3270  -11.8940 C.ar   15  TRP15       0.0810
     11  CE3       22.0890   10.7380  -10.6500 C.ar   15  TRP15       0.0012
     12  CZ2       19.2870   10.5720  -10.7510 C.ar   15  TRP15       0.0191
     13  CZ3       21.3290   10.9810   -9.5010 C.ar   15  TRP15       0.0001
     14  CH2       19.9420   10.8950   -9.5570 C.ar   15  TRP15       0.0015
     15  N         24.5690    9.2850   -7.6380 N.3    53  HIS53      -0.1241
     16  CA        24.7560    7.8820   -7.2810 C.3    53  HIS53       0.1621
     17  C         26.2320    7.8870   -6.9020 C.2    53  HIS53       0.2264
     18  O         27.0400    8.6700   -7.4430 O.2    53  HIS53      -0.2867
     19  CB        24.6860    6.8610   -8.4340 C.3    53  HIS53       0.0745
     20  CG        23.3610    6.8210   -9.1500 C.ar   53  HIS53       0.0817
     21  ND1       22.9270    7.6130  -10.1320 N.ar   53  HIS53      -0.2268
     22  CD2       22.3620    5.9350   -8.8450 C.ar   53  HIS53       0.1154
     23  CE1       21.7110    7.2490  -10.4330 C.ar   53  HIS53       0.1986
     24  NE2       21.3840    6.2440   -9.6430 N.ar   53  HIS53      -0.2212
     25  N         19.7620   14.9920   -1.8660 N.3    87  MET87      -0.1245
     26  CA        19.4660   13.5860   -1.9600 C.3    87  MET87       0.1570
     27  C         20.6220   12.8970   -2.6180 C.2    87  MET87       0.2261
     28  O         21.3880   13.5170   -3.3500 O.2    87  MET87      -0.2867
     29  CB        18.1540   13.4380   -2.7570 C.3    87  MET87       0.0387
     30  CG        17.6900   12.0290   -3.1730 C.3    87  MET87       0.0595
     31  SD        18.6320   11.2220   -4.5320 S.3    87  MET87      -0.1393
     32  CE        17.6160   11.6800   -5.9140 C.3    87  MET87       0.0692
     33  N         21.8950    8.4750   -3.7700 N.3    89  THR89      -0.1203
     34  CA        21.4190    7.1230   -4.0360 C.3    89  THR89       0.1994
     35  C         22.6300    6.2700   -4.3900 C.2    89  THR89       0.2618
     36  O         23.7690    6.7280   -4.4750 O.2    89  THR89      -0.2717
     37  CB        20.3420    7.2800   -5.1840 C.3    89  THR89       0.1784
     38  OG1       19.7710    6.0190   -5.4050 O.3    89  THR89      -0.2211
     39  CG2       20.9000    7.8180   -6.4790 C.3    89  THR89       0.0376
     40  N         22.3980    4.9820   -4.5130 N.am   90  THR90      -0.1952
     41  CA        23.4330    4.0070   -4.8030 C.3    90  THR90       0.1897
     42  C         23.1750    3.4890   -6.2230 C.2    90  THR90       0.2313
     43  O         22.0270    3.3690   -6.6550 O.2    90  THR90      -0.2863
     44  CB        23.3360    2.7920   -3.8710 C.3    90  THR90       0.1794
     45  OG1       22.8050    3.2400   -2.6430 O.3    90  THR90      -0.2208
     46  CG2       24.6380    2.1260   -3.6700 C.3    90  THR90       0.0378
     47  N         22.7550   -1.3030  -10.1740 N.3    93  PHE93      -0.1241
     48  CA        22.2410   -1.7950  -11.4390 C.3    93  PHE93       0.1605
     49  C         23.2350   -1.8710  -12.5940 C.2    93  PHE93       0.2264
     50  O         23.0650   -2.7010  -13.4870 O.2    93  PHE93      -0.2867
     51  CB        21.0220   -0.9110  -11.8280 C.3    93  PHE93       0.0534
     52  CG        21.2470    0.6010  -11.8070 C.ar   93  PHE93      -0.0203
     53  CD1       21.8140    1.2510  -12.8920 C.ar   93  PHE93      -0.0042
     54  CD2       20.8880    1.3180  -10.6880 C.ar   93  PHE93      -0.0042
     55  CE1       22.0260    2.6190  -12.8460 C.ar   93  PHE93      -0.0003
     56  CE2       21.0950    2.6840  -10.6400 C.ar   93  PHE93      -0.0003
     57  CZ        21.6660    3.3330  -11.7170 C.ar   93  PHE93      -0.0000
     58  N         17.5800    7.7770   -1.7340 N.3   134  VAL134     -0.1245
     59  CA        16.7070    7.0730   -2.6740 C.3   134  VAL134      0.1561
     60  C         17.2220    5.6840   -3.0220 C.2   134  VAL134      0.2260
     61  O         18.4230    5.4300   -3.1610 O.2   134  VAL134     -0.2867
     62  CB        16.5240    7.9300   -3.9940 C.3   134  VAL134      0.0252
     63  CG1       15.7990    7.1710   -5.1000 C.3   134  VAL134      0.0019
     64  CG2       15.6160    9.1300   -3.7010 C.3   134  VAL134      0.0019
     65  N         16.2910    2.9700   -5.9670 N.3   136  TRP136     -0.1241
     66  CA        15.6150    2.5480   -7.1870 C.3   136  TRP136      0.1605
     67  C         16.1220    1.1200   -7.4250 C.2   136  TRP136      0.2264
     68  O         17.2720    0.8970   -7.8270 O.2   136  TRP136     -0.2867
     69  CB        15.9810    3.4270   -8.4300 C.3   136  TRP136      0.0550
     70  CG        15.4900    2.8130   -9.7440 C.ar  136  TRP136      0.0003
     71  CD1       14.1560    2.5170   -9.9250 C.ar  136  TRP136      0.0946
     72  CD2       16.2570    2.4520  -10.8320 C.ar  136  TRP136      0.0152
     73  NE1       14.0760    1.9600  -11.1080 N.ar  136  TRP136     -0.2442
     74  CE2       15.2960    1.8990  -11.6780 C.ar  136  TRP136      0.0810
     75  CE3       17.5690    2.4840  -11.2310 C.ar  136  TRP136      0.0012
     76  CZ2       15.6330    1.3860  -12.9270 C.ar  136  TRP136      0.0191
     77  CZ3       17.9060    1.9660  -12.4720 C.ar  136  TRP136      0.0001
     78  CH2       16.9590    1.4200  -13.3190 C.ar  136  TRP136      0.0015
     79  N         11.8330    4.4150   -5.0160 N.3   180  GLU180     -0.1245
     80  CA        11.4650    4.8800   -6.3220 C.3   180  GLU180      0.1567
     81  C         10.8710    3.7190   -7.1240 C.2   180  GLU180      0.2260
     82  O         11.6300    2.8250   -7.5310 O.2   180  GLU180     -0.2867
     83  CB        12.7240    5.4280   -6.9790 C.3   180  GLU180      0.0388
     84  CG        12.2780    6.1400   -8.2130 C.3   180  GLU180      0.1160
     85  CD        13.4070    6.7060   -9.0110 C.2   180  GLU180      0.3649
     86  OE1       14.2600    7.4240   -8.4990 O.co2 180  GLU180     -0.2457
     87  OE2       13.4050    6.3830  -10.1770 O.co2 180  GLU180     -0.2457
     88  N          9.1660    1.5790  -10.4570 N.3   182  LYS182     -0.1245
     89  CA         9.2630    1.5720  -11.9110 C.3   182  LYS182      0.1561
     90  C          8.6700    0.2280  -12.3590 C.2   182  LYS182      0.2260
     91  O          9.0160   -0.8120  -11.7910 O.2   182  LYS182     -0.2867
     92  CB        10.7430    1.7220  -12.3600 C.3   182  LYS182      0.0271
     93  CG        10.7900    1.9400  -13.8800 C.3   182  LYS182      0.0035
     94  CD        12.2250    1.9590  -14.3180 C.3   182  LYS182      0.0206
     95  CE        12.2980    2.3540  -15.7720 C.3   182  LYS182      0.1093
     96  NZ        13.6840    2.4570  -16.1960 N.3   182  LYS182     -0.1314
     97  N          9.6110    8.0950   -3.8720 N.3   214  ASN214     -0.1240
     98  CA        10.1300    9.0750   -4.8000 C.3   214  ASN214      0.1653
     99  C          9.5420    8.6350   -6.1530 C.2   214  ASN214      0.2266
    100  O         10.2060    7.9600   -6.9460 O.2   214  ASN214     -0.2867
    101  CB        11.6700    9.0170   -4.7850 C.3   214  ASN214      0.1155
    102  CG        12.2440    9.9020   -5.8490 C.2   214  ASN214      0.2627
    103  OD1       11.7710   11.0100   -6.0330 O.2   214  ASN214     -0.2716
    104  ND2       13.2150    9.4700   -6.6410 N.am  214  ASN214     -0.0877
    105  N          8.1860    8.8230  -10.0970 N.3   216  GLU216     -0.1245
    106  CA         8.6910    9.5110  -11.2660 C.3   216  GLU216      0.1567
    107  C          7.6150    9.5180  -12.3150 C.2   216  GLU216      0.2260
    108  O          7.0360    8.4630  -12.5750 O.2   216  GLU216     -0.2867
    109  CB         9.9280    8.8070  -11.7610 C.3   216  GLU216      0.0388
    110  CG        10.3110    9.4050  -13.0950 C.3   216  GLU216      0.1160
    111  CD        11.6600    8.9590  -13.6110 C.2   216  GLU216      0.3649
    112  OE1       12.6180    9.0170  -12.8910 O.co2 216  GLU216     -0.2457
    113  OE2       11.7630    8.5680  -14.7580 O.co2 216  GLU216     -0.2457
    114  N          7.7030    6.8650  -15.1190 N.3   219  HIS219     -0.1241
    115  CA         7.5300    5.5050  -14.6090 C.3   219  HIS219      0.1621
    116  C          6.0720    5.1250  -14.3970 C.2   219  HIS219      0.2264
    117  O          5.7190    4.0300  -14.8300 O.2   219  HIS219     -0.2867
    118  CB         8.1970    5.2880  -13.2750 C.3   219  HIS219      0.0745
    119  CG         9.6840    5.4370  -13.3300 C.ar  219  HIS219      0.0817
    120  ND1       10.4670    5.2630  -12.2860 N.ar  219  HIS219     -0.2268
    121  CD2       10.4760    5.6820  -14.4190 C.ar  219  HIS219      0.1154
    122  CE1       11.6980    5.3690  -12.6820 C.ar  219  HIS219      0.1986
    123  NE2       11.7240    5.6080  -13.9760 N.ar  219  HIS219     -0.2212
    124  N         10.4850   12.8560   -8.8170 N.3   244  ASP244     -0.1239
    125  CA        11.2840   12.9470  -10.0260 C.3   244  ASP244      0.1674
    126  C         10.4360   13.3310  -11.2190 C.2   244  ASP244      0.2266
    127  O          9.4850   12.6520  -11.6010 O.2   244  ASP244     -0.2867
    128  CB        11.9460   11.6400  -10.3040 C.3   244  ASP244      0.1410
    129  CG        13.1920   11.3510   -9.4800 C.2   244  ASP244      0.3668
    130  OD1       13.5810   12.0460   -8.5470 O.co2 244  ASP244     -0.2456
    131  OD2       13.8070   10.3620   -9.7810 O.co2 244  ASP244     -0.2456
    132  N         11.3730    3.5830  -21.3870 N.3   254  ASP254     -0.1239
    133  CA        11.6150    4.7340  -20.5530 C.3   254  ASP254      0.1674
    134  C         12.3980    5.8930  -21.2410 C.2   254  ASP254      0.2266
    135  O         13.6220    5.8550  -21.3710 O.2   254  ASP254     -0.2867
    136  CB        12.3220    4.0930  -19.3950 C.3   254  ASP254      0.1410
    137  CG        12.6130    5.0640  -18.2910 C.2   254  ASP254      0.3668
    138  OD1       11.8000    5.9800  -18.0980 O.co2 254  ASP254     -0.2456
    139  OD2       13.6340    4.8670  -17.6370 O.co2 254  ASP254     -0.2456
    140  N         12.6020    9.5260  -20.4610 N.3   256  ASP256     -0.1239
    141  CA        13.2140   10.6090  -19.6870 C.3   256  ASP256      0.1674
    142  C         13.4160   11.9090  -20.4410 C.2   256  ASP256      0.2266
    143  O         14.4680   12.5300  -20.4520 O.2   256  ASP256     -0.2867
    144  CB        14.5510   10.2270  -19.1500 C.3   256  ASP256      0.1410
    145  CG        14.4530    9.1380  -18.1410 C.2   256  ASP256      0.3668
    146  OD1       13.4010    8.9200  -17.5470 O.co2 256  ASP256     -0.2456
    147  OD2       15.4710    8.5040  -17.9660 O.co2 256  ASP256     -0.2456
    148  N         14.8700   14.1590  -13.3020 N.3   286  ASP286     -0.1239
    149  CA        15.5990   12.9990  -13.7270 C.3   286  ASP286      0.1674
    150  C         15.2090   12.7520  -15.1730 C.2   286  ASP286      0.2266
    151  O         14.2710   12.0120  -15.4810 O.2   286  ASP286     -0.2867
    152  CB        15.2250   11.8460  -12.8830 C.3   286  ASP286      0.1410
    153  CG        16.1050   10.6350  -13.1970 C.2   286  ASP286      0.3668
    154  OD1       16.9880   10.5880  -14.0540 O.co2 286  ASP286     -0.2456
    155  OD2       15.9040    9.6630  -12.5270 O.co2 286  ASP286     -0.2456
    156  N         17.0180   12.8400  -19.4600 N.3   288  LYS288     -0.1245
    157  CA        18.1860   12.5550  -20.2600 C.3   288  LYS288      0.1561
    158  C         18.0380   13.4830  -21.4480 C.2   288  LYS288      0.2260
    159  O         17.0570   13.3820  -22.1840 O.2   288  LYS288     -0.2867
    160  CB        18.1720   11.1350  -20.7650 C.3   288  LYS288      0.0271
    161  CG        18.7250   10.1830  -19.7400 C.3   288  LYS288      0.0035
    162  CD        18.3190    8.7610  -20.0960 C.3   288  LYS288      0.0206
    163  CE        19.1190    7.7140  -19.3300 C.3   288  LYS288      0.1093
    164  NZ        19.2670    7.9980  -17.9070 N.3   288  LYS288     -0.1314
@<TRIPOS>BOND
     1   159   158    2
     2   158   157    1
     3   132   133    1
     4   135   134    2
     5   134   133    1
     6   160   157    1
     7   160   161    1
     8   133   136    1
     9   140   141    1
    10   143   142    2
    11   142   141    1
    12   157   156    1
    13   162   161    1
    14   162   163    1
    15   141   144    1
    16   136   137    1
    17   163   164    1
    18   144   145    1
    19   137   138   ar
    20   137   139   ar
    21   145   147   ar
    22   145   146   ar
    23     4     3    2
    24    96    95    1
    25    95    94    1
    26   151   150    2
    27     3     2    1
    28   150   149    1
    29   114   115    1
    30   117   116    2
    31   113   111   ar
    32   115   116    1
    33   115   118    1
    34   121   123   ar
    35   121   119   ar
    36     2     5    1
    37     2     1    1
    38    94    93    1
    39   154   153   ar
    40   123   122   ar
    41     7     6   ar
    42     7     9   ar
    43    93    92    1
    44     5     6    1
    45   149   148    1
    46   149   152    1
    47   111   110    1
    48   111   112   ar
    49    50    49    2
    50   119   118    1
    51   119   120   ar
    52    78    76   ar
    53    78    77   ar
    54   153   152    1
    55   153   155   ar
    56     6     8   ar
    57     9    10   ar
    58   110   109    1
    59    76    74   ar
    60    53    55   ar
    61    53    52   ar
    62    55    57   ar
    63   122   120   ar
    64    49    48    1
    65   108   107    2
    66    77    75   ar
    67    92    89    1
    68    90    89    1
    69    90    91    2
    70   107   106    1
    71    89    88    1
    72    10     8   ar
    73    10    12   ar
    74     8    11   ar
    75    51    52    1
    76    51    48    1
    77    52    54   ar
    78   109   106    1
    79    57    56   ar
    80    74    73   ar
    81    74    72   ar
    82   127   126    2
    83    48    47    1
    84   106   105    1
    85    75    72   ar
    86   126   125    1
    87    73    71   ar
    88    72    70   ar
    89    12    14   ar
    90    54    56   ar
    91    11    13   ar
    92    23    21   ar
    93    23    24   ar
    94   128   125    1
    95   128   129    1
    96    87    85   ar
    97    21    20   ar
    98   125   124    1
    99    71    70   ar
   100   131   129   ar
   101    70    69    1
   102    24    22   ar
   103    14    13   ar
   104   129   130   ar
   105    20    22   ar
   106    20    19    1
   107    85    86   ar
   108    85    84    1
   109    19    16    1
   110    69    66    1
   111    84    83    1
   112    68    67    2
   113    15    16    1
   114    82    81    2
   115    18    17    2
   116    67    66    1
   117    16    17    1
   118    66    65    1
   119    81    80    1
   120    83    80    1
   121   100    99    2
   122    43    42    2
   123   104   102   am
   124    39    37    1
   125    80    79    1
   126    42    41    1
   127    99    98    1
   128   103   102    2
   129    32    31    1
   130   102   101    1
   131    38    37    1
   132    37    34    1
   133    63    62    1
   134    41    40    1
   135    41    44    1
   136    98   101    1
   137    98    97    1
   138    31    30    1
   139    40    35   am
   140    36    35    2
   141    35    34    1
   142    34    33    1
   143    62    64    1
   144    62    59    1
   145    44    46    1
   146    44    45    1
   147    28    27    2
   148    30    29    1
   149    61    60    2
   150    60    59    1
   151    29    26    1
   152    59    58    1
   153    27    26    1
   154    26    25    1
