@<TRIPOS>MOLECULE
tmp/1xz8A00.pdb
 151 147 0 0 0
SMALL
GASTEIGER

@<TRIPOS>ATOM
      1  N         16.5860   -2.3010   12.9710 N.3    39  LYS39      -0.1245
      2  CA        16.8940   -3.7250   13.0370 C.3    39  LYS39       0.1561
      3  C         16.5730   -4.3500   14.4020 C.2    39  LYS39       0.2260
      4  O         16.1050   -3.6770   15.3180 O.2    39  LYS39      -0.2867
      5  CB        18.3590   -3.9770   12.6600 C.3    39  LYS39       0.0271
      6  CG        18.6650   -3.7250   11.1800 C.3    39  LYS39       0.0035
      7  CD        19.9620   -4.4110   10.7820 C.3    39  LYS39       0.0206
      8  CE        20.3010   -4.2280    9.3150 C.3    39  LYS39       0.1093
      9  NZ        21.3810   -5.1840    8.9050 N.3    39  LYS39      -0.1314
     10  N         18.3070   -5.6440   17.2370 N.3    41  ARG41      -0.1245
     11  CA        18.8120   -5.1500   18.5000 C.3    41  ARG41       0.1563
     12  C         18.5700   -3.6740   18.7500 C.2    41  ARG41       0.2260
     13  O         18.8370   -3.1700   19.8360 O.2    41  ARG41      -0.2867
     14  CB        20.2840   -5.5120   18.6290 C.3    41  ARG41       0.0307
     15  CG        20.4300   -7.0130   18.7010 C.3    41  ARG41       0.0489
     16  CD        21.8580   -7.5190   18.7710 C.3    41  ARG41       0.2205
     17  NE        21.8380   -8.9760   18.6750 N.pl3  41  ARG41      -0.0865
     18  CZ        22.8960   -9.7330   18.4250 C.cat  41  ARG41       0.5346
     19  NH1       24.0850   -9.1830   18.2440 N.pl3  41  ARG41       0.1354
     20  NH2       22.7580  -11.0440   18.3440 N.pl3  41  ARG41       0.1354
     21  N         19.3050   -2.3510    2.3500 N.3    71  TYR71      -0.1241
     22  CA        20.6610   -1.8110    2.4450 C.3    71  TYR71       0.1605
     23  C         21.4890   -2.5080    1.3590 C.2    71  TYR71       0.2264
     24  O         21.9250   -3.6480    1.5300 O.2    71  TYR71      -0.2867
     25  CB        21.2190   -2.1110    3.8360 C.3    71  TYR71       0.0534
     26  CG        22.5150   -1.4130    4.1810 C.ar   71  TYR71      -0.0201
     27  CD1       23.7010   -1.7250    3.5190 C.ar   71  TYR71      -0.0009
     28  CD2       22.5650   -0.4760    5.2130 C.ar   71  TYR71      -0.0009
     29  CE1       24.9060   -1.1270    3.8820 C.ar   71  TYR71       0.0417
     30  CE2       23.7600    0.1270    5.5810 C.ar   71  TYR71       0.0417
     31  CZ        24.9270   -0.2050    4.9160 C.ar   71  TYR71       0.1957
     32  OH        26.1170    0.3650    5.3000 O.3    71  TYR71      -0.2866
     33  N         19.5590    2.5740   17.7040 N.3    87  ASP87      -0.1225
     34  CA        20.3630    1.4770   17.2180 C.3    87  ASP87       0.1805
     35  C         21.3850    1.1870   18.2930 C.2    87  ASP87       0.2598
     36  O         21.7170    2.0670   19.0680 O.2    87  ASP87      -0.2718
     37  CB        21.0510    1.8670   15.9090 C.3    87  ASP87       0.1424
     38  CG        21.6870    0.6820   15.2110 C.2    87  ASP87       0.3668
     39  OD1       21.7390    0.6870   13.9640 O.co2  87  ASP87      -0.2456
     40  OD2       22.1420   -0.2500   15.9060 O.co2  87  ASP87      -0.2456
     41  N         21.8710   -0.0440   18.3500 N.am   88  ASP88      -0.1960
     42  CA        22.8500   -0.4150   19.3550 C.3    88  ASP88       0.1840
     43  C         24.2510    0.0540   19.0050 C.2    88  ASP88       0.2622
     44  O         24.9810    0.5110   19.8780 O.2    88  ASP88      -0.2715
     45  CB        22.8370   -1.9260   19.5690 C.3    88  ASP88       0.1450
     46  CG        23.2660   -2.6870   18.3480 C.2    88  ASP88       0.3671
     47  OD1       22.8460   -2.3150   17.2300 O.co2  88  ASP88      -0.2456
     48  OD2       24.0130   -3.6700   18.5120 O.co2  88  ASP88      -0.2456
     49  N         24.6430   -0.0500   17.7390 N.am   89  VAL89      -0.1963
     50  CA        25.9780    0.4170   17.3730 C.3    89  VAL89       0.1727
     51  C         26.0360    1.3260   16.1500 C.2    89  VAL89       0.2616
     52  O         25.3770    1.0900   15.1420 O.2    89  VAL89      -0.2715
     53  CB        26.9590   -0.7530   17.1760 C.3    89  VAL89       0.0290
     54  CG1       28.3180   -0.2220   16.7410 C.3    89  VAL89       0.0023
     55  CG2       27.1060   -1.5180   18.4720 C.3    89  VAL89       0.0023
     56  N         26.8410    2.3760   16.2730 N.am   90  LEU90      -0.1963
     57  CA        27.0400    3.3640   15.2170 C.3    90  LEU90       0.1728
     58  C         28.4800    3.2770   14.7300 C.2    90  LEU90       0.2616
     59  O         29.4120    3.5050   15.5040 O.2    90  LEU90      -0.2715
     60  CB        26.7730    4.7720   15.7610 C.3    90  LEU90       0.0311
     61  CG        27.0360    5.9530   14.8320 C.3    90  LEU90       0.0022
     62  CD1       26.1770    5.8430   13.5940 C.3    90  LEU90       0.0001
     63  CD2       26.7370    7.2400   15.5660 C.3    90  LEU90       0.0001
     64  N         28.6410    2.9510   13.4470 N.am   91  PHE91      -0.1960
     65  CA        29.9500    2.8160   12.8070 C.3    91  PHE91       0.1771
     66  C         30.1240    3.8530   11.6760 C.2    91  PHE91       0.2620
     67  O         30.5020    5.0020   11.9230 O.2    91  PHE91      -0.2715
     68  CB        30.0860    1.3990   12.2350 C.3    91  PHE91       0.0574
     69  CG        31.4590    1.0660   11.7280 C.ar   91  PHE91      -0.0200
     70  CD1       31.6270    0.1170   10.7310 C.ar   91  PHE91      -0.0042
     71  CD2       32.5910    1.6510   12.2830 C.ar   91  PHE91      -0.0042
     72  CE1       32.9010   -0.2520   10.2930 C.ar   91  PHE91      -0.0003
     73  CE2       33.8670    1.2850   11.8510 C.ar   91  PHE91      -0.0003
     74  CZ        34.0180    0.3310   10.8550 C.ar   91  PHE91      -0.0000
     75  N         29.8450    3.4400   10.4410 N.am   92  THR92      -0.1937
     76  CA        29.9700    4.3150    9.2800 C.3    92  THR92       0.2028
     77  C         28.8160    5.3160    9.1730 C.2    92  THR92       0.2643
     78  O         28.9910    6.4170    8.6420 O.2    92  THR92      -0.2714
     79  CB        30.0450    3.5040    7.9550 C.3    92  THR92       0.1808
     80  OG1       28.7400    3.0440    7.5810 O.3    92  THR92      -0.2208
     81  CG2       30.9740    2.3060    8.1210 C.3    92  THR92       0.0379
     82  N         27.6460    4.9390    9.6770 N.am   93  GLY93      -0.1939
     83  CA        26.4990    5.8280    9.6260 C.3    93  GLY93       0.2014
     84  C         25.6450    5.6390    8.3930 C.2    93  GLY93       0.2639
     85  O         24.6290    6.3230    8.2050 O.2    93  GLY93      -0.2714
     86  N         26.0710    4.7030    7.5500 N.am   94  ARG94      -0.1963
     87  CA        25.3670    4.3890    6.3190 C.3    94  ARG94       0.1729
     88  C         23.9810    3.8350    6.6220 C.2    94  ARG94       0.2617
     89  O         23.0280    4.0640    5.8760 O.2    94  ARG94      -0.2715
     90  CB        26.1880    3.3900    5.5150 C.3    94  ARG94       0.0348
     91  CG        27.5350    3.9540    5.1030 C.3    94  ARG94       0.0492
     92  CD        28.3540    2.9930    4.2640 C.3    94  ARG94       0.2205
     93  NE        29.5990    3.6110    3.8110 N.pl3  94  ARG94      -0.0865
     94  CZ        29.6960    4.4570    2.7860 C.cat  94  ARG94       0.5346
     95  NH1       28.6140    4.7870    2.0980 N.pl3  94  ARG94       0.1354
     96  NH2       30.8730    4.9790    2.4520 N.pl3  94  ARG94       0.1354
     97  N         23.8750    3.1130    7.7300 N.am   95  THR95      -0.1937
     98  CA        22.6080    2.5350    8.1410 C.3    95  THR95       0.2028
     99  C         21.6640    3.6170    8.6370 C.2    95  THR95       0.2642
    100  O         20.4620    3.5530    8.4230 O.2    95  THR95      -0.2714
    101  CB        22.8210    1.5050    9.2560 C.3    95  THR95       0.1808
    102  OG1       23.6020    0.4240    8.7410 O.3    95  THR95      -0.2208
    103  CG2       21.4950    0.9700    9.7660 C.3    95  THR95       0.0379
    104  N         22.2140    4.6110    9.3150 N.am   96  VAL96      -0.1977
    105  CA        21.3910    5.6930    9.8090 C.3    96  VAL96       0.1596
    106  C         20.8520    6.4840    8.6190 C.2    96  VAL96       0.2287
    107  O         19.6770    6.8600    8.5960 O.2    96  VAL96      -0.2864
    108  CB        22.1920    6.6150   10.7620 C.3    96  VAL96       0.0276
    109  CG1       21.3880    7.8710   11.0870 C.3    96  VAL96       0.0022
    110  CG2       22.5230    5.8580   12.0350 C.3    96  VAL96       0.0022
    111  N         31.2870    3.5640   17.8870 N.3   120  ARG120     -0.1245
    112  CA        32.6390    3.0490   17.7310 C.3   120  ARG120      0.1563
    113  C         33.4530    3.8900   16.7840 C.2   120  ARG120      0.2260
    114  O         34.5070    3.4520   16.3380 O.2   120  ARG120     -0.2867
    115  CB        32.6390    1.6050   17.2210 C.3   120  ARG120      0.0307
    116  CG        31.9480    1.3990   15.8820 C.3   120  ARG120      0.0489
    117  CD        32.1940   -0.0030   15.3560 C.3   120  ARG120      0.2205
    118  NE        33.5280   -0.1370   14.7770 N.pl3 120  ARG120     -0.0865
    119  CZ        34.0860   -1.2860   14.4100 C.cat 120  ARG120      0.5346
    120  NH1       33.4320   -2.4270   14.5610 N.pl3 120  ARG120      0.1354
    121  NH2       35.3050   -1.2910   13.8870 N.pl3 120  ARG120      0.1354
    122  N         35.8030   -5.5980   16.0980 N.3   143  LEU143     -0.1231
    123  CA        34.3530   -5.7020   15.9920 C.3   143  LEU143      0.1693
    124  C         33.6840   -5.5500   17.3610 C.2   143  LEU143      0.2592
    125  O         34.0960   -6.1700   18.3440 O.2   143  LEU143     -0.2718
    126  CB        33.9850   -7.0560   15.3630 C.3   143  LEU143      0.0284
    127  CG        32.5420   -7.3830   14.9280 C.3   143  LEU143      0.0019
    128  CD1       31.7380   -7.9230   16.0890 C.3   143  LEU143      0.0001
    129  CD2       31.8870   -6.1450   14.3260 C.3   143  LEU143      0.0001
    130  N         32.6640   -4.7050   17.4310 N.am  144  ILE144     -0.1966
    131  CA        31.9430   -4.5120   18.6820 C.3   144  ILE144      0.1727
    132  C         30.7440   -5.4550   18.7210 C.2   144  ILE144      0.2616
    133  O         29.9620   -5.5050   17.7700 O.2   144  ILE144     -0.2715
    134  CB        31.4100   -3.0660   18.8240 C.3   144  ILE144      0.0290
    135  CG1       32.5470   -2.0980   19.1670 C.3   144  ILE144      0.0022
    136  CG2       30.3290   -3.0220   19.9000 C.3   144  ILE144      0.0023
    137  CD1       33.0740   -2.2370   20.5790 C.3   144  ILE144      0.0001
    138  N         30.5990   -6.1980   19.8160 N.am  145  VAL145     -0.1963
    139  CA        29.4740   -7.1120   19.9530 C.3   145  VAL145      0.1727
    140  C         28.5780   -6.7170   21.1060 C.2   145  VAL145      0.2616
    141  O         28.9800   -6.7290   22.2670 O.2   145  VAL145     -0.2715
    142  CB        29.9220   -8.5560   20.1830 C.3   145  VAL145      0.0290
    143  CG1       28.6900   -9.4510   20.3800 C.3   145  VAL145      0.0023
    144  CG2       30.7600   -9.0280   19.0060 C.3   145  VAL145      0.0023
    145  N         27.3510   -6.3620   20.7670 N.am  146  VAL146     -0.1977
    146  CA        26.3630   -5.9600   21.7510 C.3   146  VAL146      0.1596
    147  C         25.4380   -7.1350   21.9770 C.2   146  VAL146      0.2287
    148  O         24.7670   -7.5880   21.0490 O.2   146  VAL146     -0.2864
    149  CB        25.5030   -4.7870   21.2380 C.3   146  VAL146      0.0276
    150  CG1       24.3360   -4.5600   22.1770 C.3   146  VAL146      0.0022
    151  CG2       26.3400   -3.5370   21.0950 C.3   146  VAL146      0.0022
@<TRIPOS>BOND
     1    23    24    2
     2    23    22    1
     3    95    94    1
     4    21    22    1
     5    22    25    1
     6    96    94    1
     7    94    93    2
     8    27    29   ar
     9    27    26   ar
    10    93    92    1
    11    25    26    1
    12    29    31   ar
    13    26    28   ar
    14    92    91    1
    15    31    32    1
    16    31    30   ar
    17    91    90    1
    18    28    30   ar
    19    90    87    1
    20    89    88    2
    21    87    88    1
    22    87    86    1
    23    88    97   am
    24    86    84   am
    25    80    79    1
    26    97    98    1
    27    79    81    1
    28    79    76    1
    29    98    99    1
    30    98   101    1
    31    85    84    2
    32    84    83    1
    33   100    99    2
    34   107   106    2
    35   106   105    1
    36    99   104   am
    37    78    77    2
    38   102   101    1
    39     9     8    1
    40    77    76    1
    41    77    82   am
    42   101   103    1
    43    76    75    1
    44     8     7    1
    45   104   105    1
    46    83    82    1
    47   105   108    1
    48    72    70   ar
    49    72    74   ar
    50    75    66   am
    51    70    69   ar
    52   108   109    1
    53   108   110    1
    54     7     6    1
    55    74    73   ar
    56     6     5    1
    57    66    67    2
    58    66    65    1
    59    69    68    1
    60    69    71   ar
    61    73    71   ar
    62    68    65    1
    63     5     2    1
    64    65    64    1
    65     1     2    1
    66     2     3    1
    67    64    58   am
    68    62    61    1
    69   121   119    1
    70    39    38   ar
    71   129   127    1
    72     3     4    2
    73   119   120    1
    74   119   118    2
    75    58    57    1
    76    58    59    2
    77   118   117    1
    78    61    63    1
    79    61    60    1
    80   127   126    1
    81   127   128    1
    82    52    51    2
    83    38    40   ar
    84    38    37    1
    85    57    60    1
    86    57    56    1
    87   117   116    1
    88   126   123    1
    89   116   115    1
    90    37    34    1
    91   123   122    1
    92   123   124    1
    93    51    56   am
    94    51    50    1
    95   114   113    2
    96    54    53    1
    97   113   112    1
    98    53    50    1
    99    53    55    1
   100    34    33    1
   101    34    35    1
   102   115   112    1
   103    47    46   ar
   104    10    11    1
   105   124   130   am
   106   124   125    2
   107    50    49    1
   108   130   131    1
   109   112   111    1
   110    49    43   am
   111   133   132    2
   112    19    18    1
   113    35    41   am
   114    35    36    2
   115    20    18    1
   116    46    48   ar
   117    46    45    1
   118    41    42    1
   119    18    17    2
   120    11    14    1
   121    11    12    1
   122    14    15    1
   123    17    16    1
   124   131   132    1
   125   131   134    1
   126    15    16    1
   127   132   138   am
   128    12    13    2
   129   134   135    1
   130   134   136    1
   131    43    42    1
   132    43    44    2
   133   144   142    1
   134   135   137    1
   135    42    45    1
   136   138   139    1
   137   139   142    1
   138   139   140    1
   139   142   143    1
   140   145   140   am
   141   145   146    1
   142   148   147    2
   143   151   149    1
   144   140   141    2
   145   149   146    1
   146   149   150    1
   147   146   147    1
