@<TRIPOS>MOLECULE
tmp/1xz8A01.pdb
 80 77 0 0 0
SMALL
GASTEIGER

@<TRIPOS>ATOM
      1  N         16.5860   -2.3010   12.9710 N.3    39  LYS39      -0.1231
      2  CA        16.8940   -3.7250   13.0370 C.3    39  LYS39       0.1693
      3  C         16.5730   -4.3500   14.4020 C.2    39  LYS39       0.2593
      4  O         16.1050   -3.6770   15.3180 O.2    39  LYS39      -0.2718
      5  CB        18.3590   -3.9770   12.6600 C.3    39  LYS39       0.0285
      6  CG        18.6650   -3.7250   11.1800 C.3    39  LYS39       0.0035
      7  CD        19.9620   -4.4110   10.7820 C.3    39  LYS39       0.0206
      8  CE        20.3010   -4.2280    9.3150 C.3    39  LYS39       0.1093
      9  NZ        21.3810   -5.1840    8.9050 N.3    39  LYS39      -0.1314
     10  N         16.8390   -5.6420   14.5300 N.am   40  THR40      -0.1939
     11  CA        16.5280   -6.3820   15.7450 C.3    40  THR40       0.2028
     12  C         17.0040   -5.8210   17.0810 C.2    40  THR40       0.2642
     13  O         16.1950   -5.5680   17.9750 O.2    40  THR40      -0.2714
     14  CB        17.0290   -7.8340   15.6330 C.3    40  THR40       0.1808
     15  OG1       16.6220   -8.3730   14.3750 O.3    40  THR40      -0.2208
     16  CG2       16.4300   -8.6910   16.7250 C.3    40  THR40       0.0379
     17  N         18.3070   -5.6440   17.2370 N.am   41  ARG41      -0.1977
     18  CA        18.8120   -5.1500   18.5000 C.3    41  ARG41       0.1597
     19  C         18.5700   -3.6740   18.7500 C.2    41  ARG41       0.2287
     20  O         18.8370   -3.1700   19.8360 O.2    41  ARG41      -0.2864
     21  CB        20.2840   -5.5120   18.6290 C.3    41  ARG41       0.0334
     22  CG        20.4300   -7.0130   18.7010 C.3    41  ARG41       0.0492
     23  CD        21.8580   -7.5190   18.7710 C.3    41  ARG41       0.2205
     24  NE        21.8380   -8.9760   18.6750 N.pl3  41  ARG41      -0.0865
     25  CZ        22.8960   -9.7330   18.4250 C.cat  41  ARG41       0.5346
     26  NH1       24.0850   -9.1830   18.2440 N.pl3  41  ARG41       0.1354
     27  NH2       22.7580  -11.0440   18.3440 N.pl3  41  ARG41       0.1354
     28  N         19.5590    2.5740   17.7040 N.3    87  ASP87      -0.1225
     29  CA        20.3630    1.4770   17.2180 C.3    87  ASP87       0.1805
     30  C         21.3850    1.1870   18.2930 C.2    87  ASP87       0.2598
     31  O         21.7170    2.0670   19.0680 O.2    87  ASP87      -0.2718
     32  CB        21.0510    1.8670   15.9090 C.3    87  ASP87       0.1424
     33  CG        21.6870    0.6820   15.2110 C.2    87  ASP87       0.3668
     34  OD1       21.7390    0.6870   13.9640 O.co2  87  ASP87      -0.2456
     35  OD2       22.1420   -0.2500   15.9060 O.co2  87  ASP87      -0.2456
     36  N         21.8710   -0.0440   18.3500 N.am   88  ASP88      -0.1960
     37  CA        22.8500   -0.4150   19.3550 C.3    88  ASP88       0.1840
     38  C         24.2510    0.0540   19.0050 C.2    88  ASP88       0.2621
     39  O         24.9810    0.5110   19.8780 O.2    88  ASP88      -0.2715
     40  CB        22.8370   -1.9260   19.5690 C.3    88  ASP88       0.1450
     41  CG        23.2660   -2.6870   18.3480 C.2    88  ASP88       0.3671
     42  OD1       22.8460   -2.3150   17.2300 O.co2  88  ASP88      -0.2456
     43  OD2       24.0130   -3.6700   18.5120 O.co2  88  ASP88      -0.2456
     44  N         24.6430   -0.0500   17.7390 N.am   89  VAL89      -0.1977
     45  CA        25.9780    0.4170   17.3730 C.3    89  VAL89       0.1596
     46  C         26.0360    1.3260   16.1500 C.2    89  VAL89       0.2287
     47  O         25.3770    1.0900   15.1420 O.2    89  VAL89      -0.2864
     48  CB        26.9590   -0.7530   17.1760 C.3    89  VAL89       0.0276
     49  CG1       28.3180   -0.2220   16.7410 C.3    89  VAL89       0.0022
     50  CG2       27.1060   -1.5180   18.4720 C.3    89  VAL89       0.0022
     51  N         35.8030   -5.5980   16.0980 N.3   143  LEU143     -0.1231
     52  CA        34.3530   -5.7020   15.9920 C.3   143  LEU143      0.1693
     53  C         33.6840   -5.5500   17.3610 C.2   143  LEU143      0.2592
     54  O         34.0960   -6.1700   18.3440 O.2   143  LEU143     -0.2718
     55  CB        33.9850   -7.0560   15.3630 C.3   143  LEU143      0.0284
     56  CG        32.5420   -7.3830   14.9280 C.3   143  LEU143      0.0019
     57  CD1       31.7380   -7.9230   16.0890 C.3   143  LEU143      0.0001
     58  CD2       31.8870   -6.1450   14.3260 C.3   143  LEU143      0.0001
     59  N         32.6640   -4.7050   17.4310 N.am  144  ILE144     -0.1966
     60  CA        31.9430   -4.5120   18.6820 C.3   144  ILE144      0.1727
     61  C         30.7440   -5.4550   18.7210 C.2   144  ILE144      0.2616
     62  O         29.9620   -5.5050   17.7700 O.2   144  ILE144     -0.2715
     63  CB        31.4100   -3.0660   18.8240 C.3   144  ILE144      0.0290
     64  CG1       32.5470   -2.0980   19.1670 C.3   144  ILE144      0.0022
     65  CG2       30.3290   -3.0220   19.9000 C.3   144  ILE144      0.0023
     66  CD1       33.0740   -2.2370   20.5790 C.3   144  ILE144      0.0001
     67  N         30.5990   -6.1980   19.8160 N.am  145  VAL145     -0.1963
     68  CA        29.4740   -7.1120   19.9530 C.3   145  VAL145      0.1727
     69  C         28.5780   -6.7170   21.1060 C.2   145  VAL145      0.2616
     70  O         28.9800   -6.7290   22.2670 O.2   145  VAL145     -0.2715
     71  CB        29.9220   -8.5560   20.1830 C.3   145  VAL145      0.0290
     72  CG1       28.6900   -9.4510   20.3800 C.3   145  VAL145      0.0023
     73  CG2       30.7600   -9.0280   19.0060 C.3   145  VAL145      0.0023
     74  N         27.3510   -6.3620   20.7670 N.am  146  VAL146     -0.1977
     75  CA        26.3630   -5.9600   21.7510 C.3   146  VAL146      0.1596
     76  C         25.4380   -7.1350   21.9770 C.2   146  VAL146      0.2287
     77  O         24.7670   -7.5880   21.0490 O.2   146  VAL146     -0.2864
     78  CB        25.5030   -4.7870   21.2380 C.3   146  VAL146      0.0276
     79  CG1       24.3360   -4.5600   22.1770 C.3   146  VAL146      0.0022
     80  CG2       26.3400   -3.5370   21.0950 C.3   146  VAL146      0.0022
@<TRIPOS>BOND
     1     9     8    1
     2     8     7    1
     3     7     6    1
     4     6     5    1
     5     5     2    1
     6     1     2    1
     7     2     3    1
     8    34    33   ar
     9    58    56    1
    10    15    14    1
    11     3    10   am
    12     3     4    2
    13    10    11    1
    14    56    55    1
    15    56    57    1
    16    47    46    2
    17    33    35   ar
    18    33    32    1
    19    55    52    1
    20    14    11    1
    21    14    16    1
    22    11    12    1
    23    32    29    1
    24    52    51    1
    25    52    53    1
    26    46    45    1
    27    49    48    1
    28    12    17   am
    29    12    13    2
    30    48    45    1
    31    48    50    1
    32    29    28    1
    33    29    30    1
    34    42    41   ar
    35    17    18    1
    36    53    59   am
    37    53    54    2
    38    45    44    1
    39    59    60    1
    40    44    38   am
    41    62    61    2
    42    26    25    1
    43    30    36   am
    44    30    31    2
    45    27    25    1
    46    41    43   ar
    47    41    40    1
    48    36    37    1
    49    25    24    2
    50    18    21    1
    51    18    19    1
    52    21    22    1
    53    24    23    1
    54    60    61    1
    55    60    63    1
    56    22    23    1
    57    61    67   am
    58    19    20    2
    59    63    64    1
    60    63    65    1
    61    38    37    1
    62    38    39    2
    63    73    71    1
    64    64    66    1
    65    37    40    1
    66    67    68    1
    67    68    71    1
    68    68    69    1
    69    71    72    1
    70    74    69   am
    71    74    75    1
    72    77    76    2
    73    80    78    1
    74    69    70    2
    75    78    75    1
    76    78    79    1
    77    75    76    1
