@<TRIPOS>MOLECULE
tmp/1xzkB00.pdb
 116 109 0 0 0
SMALL
GASTEIGER

@<TRIPOS>ATOM
      1  N         11.8510   -1.5430    3.8590 N.3    25  GLY25      -0.1210
      2  CA        10.8210   -0.5200    3.9350 C.3    25  GLY25       0.1956
      3  C         11.3660    0.7990    4.4680 C.2    25  GLY25       0.2613
      4  O         12.4840    0.8560    4.9810 O.2    25  GLY25      -0.2717
      5  N         10.5820    1.8710    4.3320 N.am   26  SER26      -0.1938
      6  CA        10.9920    3.1940    4.8350 C.3    26  SER26       0.2055
      7  C         11.3190    3.1340    6.3420 C.2    26  SER26       0.2644
      8  O         10.6150    2.4770    7.1140 O.2    26  SER26      -0.2714
      9  CB         9.8650    4.2260    4.6530 C.3    26  SER26       0.2130
     10  OG         9.2850    4.1300    3.3600 O.3    26  SER26      -0.2179
     11  N         12.3890    3.8440    6.6810 N.am   27  THR27      -0.1936
     12  CA        12.9360    3.9900    8.0690 C.3    27  THR27       0.2028
     13  C         13.5910    2.7100    8.5680 C.2    27  THR27       0.2642
     14  O         14.2240    2.7130    9.6390 O.2    27  THR27      -0.2714
     15  CB        11.8460    4.3630    9.0920 C.3    27  THR27       0.1808
     16  OG1       11.0790    3.2150    9.4530 O.3    27  THR27      -0.2208
     17  CG2       10.8770    5.4200    8.5690 C.3    27  THR27       0.0379
     18  N         13.5430    1.5780    7.8750 N.am   28  GLU28      -0.1976
     19  CA        14.2150    0.3710    8.3410 C.3    28  GLU28       0.1602
     20  C         15.7310    0.4960    8.3150 C.2    28  GLU28       0.2287
     21  O         16.2990    1.2400    7.5210 O.2    28  GLU28      -0.2864
     22  CB        13.7700   -0.8450    7.5480 C.3    28  GLU28       0.0415
     23  CG        12.3020   -1.1430    7.7210 C.3    28  GLU28       0.1163
     24  CD        11.9910   -2.5590    7.3600 C.2    28  GLU28       0.3649
     25  OE1       12.1330   -2.9250    6.1840 O.co2  28  GLU28      -0.2457
     26  OE2       11.6500   -3.3280    8.2610 O.co2  28  GLU28      -0.2457
     27  N         10.6380    8.4140    4.1840 N.3    65  LEU65      -0.1245
     28  CA         9.1880    8.3920    4.3030 C.3    65  LEU65       0.1561
     29  C          8.4860    9.1980    3.2020 C.2    65  LEU65       0.2260
     30  O          7.4740    8.7560    2.6440 O.2    65  LEU65      -0.2867
     31  CB         8.8070    8.9460    5.6650 C.3    65  LEU65       0.0270
     32  CG         7.6120    8.2840    6.3240 C.3    65  LEU65       0.0019
     33  CD1        7.9020    6.8070    6.5050 C.3    65  LEU65       0.0001
     34  CD2        7.3600    8.9540    7.6660 C.3    65  LEU65       0.0001
     35  N          7.5860    8.0170   -0.6750 N.3    68  ASN68      -0.1240
     36  CA         6.3930    7.2030   -0.9580 C.3    68  ASN68       0.1653
     37  C          5.3480    7.9920   -1.7580 C.2    68  ASN68       0.2266
     38  O          4.5080    7.4230   -2.4620 O.2    68  ASN68      -0.2867
     39  CB         5.7290    6.7190    0.3400 C.3    68  ASN68       0.1155
     40  CG         6.4940    5.6160    1.0080 C.2    68  ASN68       0.2627
     41  OD1        6.3830    4.4480    0.6300 O.2    68  ASN68      -0.2716
     42  ND2        7.2590    5.9650    2.0300 N.am   68  ASN68      -0.0877
     43  N          9.6590   -4.7860    0.7470 N.3   103  TYR103     -0.1227
     44  CA         8.6060   -4.5400    1.7150 C.3   103  TYR103      0.1736
     45  C          8.2210   -3.0610    1.6680 C.2   103  TYR103      0.2596
     46  O          9.0880   -2.1950    1.7140 O.2   103  TYR103     -0.2718
     47  CB         9.1210   -4.9070    3.1050 C.3   103  TYR103      0.0548
     48  CG         8.2660   -4.4580    4.2790 C.ar  103  TYR103     -0.0200
     49  CD1        6.8720   -4.5390    4.2520 C.ar  103  TYR103     -0.0009
     50  CD2        8.8690   -3.9880    5.4410 C.ar  103  TYR103     -0.0009
     51  CE1        6.1040   -4.1610    5.3840 C.ar  103  TYR103      0.0417
     52  CE2        8.1300   -3.6170    6.5530 C.ar  103  TYR103      0.0417
     53  CZ         6.7540   -3.7000    6.5290 C.ar  103  TYR103      0.1957
     54  OH         6.0620   -3.3260    7.6650 O.3   103  TYR103     -0.2866
     55  N          6.9250   -2.7730    1.5630 N.am  104  SER104     -0.1938
     56  CA         6.4140   -1.3980    1.5570 C.3   104  SER104      0.2055
     57  C          7.0350   -0.5280    0.4550 C.2   104  SER104      0.2642
     58  O          6.7540   -0.7590   -0.7370 O.2   104  SER104     -0.2714
     59  CB         6.5890   -0.7620    2.9570 C.3   104  SER104      0.2130
     60  OG         5.6110    0.2220    3.2320 O.3   104  SER104     -0.2179
     61  N          7.8210    0.4970    0.8170 N.am  105  GLN105     -0.1976
     62  CA         8.4550    1.3290   -0.2160 C.3   105  GLN105      0.1601
     63  C          9.3730    0.4130   -1.0420 C.2   105  GLN105      0.2287
     64  O          9.4670    0.5610   -2.2580 O.2   105  GLN105     -0.2864
     65  CB         9.2580    2.5080    0.3590 C.3   105  GLN105      0.0394
     66  CG         9.7650    3.4330   -0.7750 C.3   105  GLN105      0.0908
     67  CD        10.6620    4.6160   -0.3690 C.2   105  GLN105      0.2608
     68  OE1       11.3630    5.1680   -1.2130 O.2   105  GLN105     -0.2717
     69  NE2       10.6490    4.9960    0.8930 N.am  105  GLN105     -0.0878
     70  N          2.6710   -1.1100   -1.7910 N.3   134  THR134     -0.1218
     71  CA         2.0580    0.2130   -1.8850 C.3   134  THR134      0.1862
     72  C          1.3700    0.5130   -3.2090 C.2   134  THR134      0.2287
     73  O          0.5560    1.4260   -3.2810 O.2   134  THR134     -0.2866
     74  CB         3.0680    1.3390   -1.5360 C.3   134  THR134      0.1770
     75  OG1        4.2420    1.1930   -2.3510 O.3   134  THR134     -0.2211
     76  CG2        3.4770    1.2480   -0.0570 C.3   134  THR134      0.0375
     77  N         -2.2560    0.2020    2.7370 N.3   161  VAL161     -0.1245
     78  CA        -1.3720    0.5610    1.6170 C.3   161  VAL161      0.1561
     79  C         -1.6740   -0.3470    0.4170 C.2   161  VAL161      0.2260
     80  O         -1.3520   -0.0030   -0.7100 O.2   161  VAL161     -0.2867
     81  CB         0.1400    0.4890    1.9690 C.3   161  VAL161      0.0252
     82  CG1        0.4170    1.1820    3.2830 C.3   161  VAL161      0.0019
     83  CG2        0.6080   -0.9370    2.0100 C.3   161  VAL161      0.0019
     84  N         -1.8850    5.7620    1.5600 N.3   166  LEU166     -0.1245
     85  CA        -0.6060    5.7720    2.2410 C.3   166  LEU166      0.1561
     86  C         -0.9610    5.9520    3.7220 C.2   166  LEU166      0.2260
     87  O         -0.7520    7.0210    4.3050 O.2   166  LEU166     -0.2867
     88  CB         0.2950    6.9040    1.7370 C.3   166  LEU166      0.0270
     89  CG         1.0450    6.7000    0.4160 C.3   166  LEU166      0.0019
     90  CD1        1.9360    7.9090    0.1770 C.3   166  LEU166      0.0001
     91  CD2        1.8950    5.4170    0.4770 C.3   166  LEU166      0.0001
     92  N         -0.7860    3.8890    7.4960 N.3   168  VAL168     -0.1245
     93  CA        -0.2020    2.7760    8.2230 C.3   168  VAL168      0.1561
     94  C         -1.0050    2.3180    9.4480 C.2   168  VAL168      0.2260
     95  O         -1.1520    3.0590   10.4330 O.2   168  VAL168     -0.2867
     96  CB         1.2490    3.1060    8.6680 C.3   168  VAL168      0.0252
     97  CG1        1.8490    1.9190    9.4160 C.3   168  VAL168      0.0019
     98  CG2        2.1130    3.4720    7.4530 C.3   168  VAL168      0.0019
     99  N         -0.0590   -3.7710    8.7550 N.3   172  HIS172     -0.1226
    100  CA         1.0710   -3.4300    7.8860 C.3   172  HIS172      0.1752
    101  C          2.3910   -3.8550    8.5050 C.2   172  HIS172      0.2595
    102  O          3.3830   -4.0540    7.8010 O.2   172  HIS172     -0.2718
    103  CB         1.1040   -1.9210    7.5990 C.3   172  HIS172      0.0759
    104  CG         2.1690   -1.5210    6.6360 C.ar  172  HIS172      0.0818
    105  ND1        2.1620   -1.8950    5.3110 N.ar  172  HIS172     -0.2268
    106  CD2        3.3210   -0.8110    6.8100 C.ar  172  HIS172      0.1154
    107  CE1        3.2510   -1.4490    4.7080 C.ar  172  HIS172      0.1986
    108  NE2        3.9650   -0.7880    5.6060 N.ar  172  HIS172     -0.2212
    109  N          2.4040   -4.0070    9.8220 N.am  173  LEU173     -0.1980
    110  CA         3.6210   -4.3990   10.5020 C.3   173  LEU173      0.1596
    111  C          3.5350   -5.8640   10.8730 C.2   173  LEU173      0.2287
    112  O          4.2730   -6.3260   11.7350 O.2   173  LEU173     -0.2864
    113  CB         3.8290   -3.5550   11.7770 C.3   173  LEU173      0.0297
    114  CG         4.0700   -2.0280   11.7640 C.3   173  LEU173      0.0022
    115  CD1        4.9700   -1.6040   10.6140 C.3   173  LEU173      0.0001
    116  CD2        2.7730   -1.3170   11.6650 C.3   173  LEU173      0.0001
@<TRIPOS>BOND
     1    73    72    2
     2    72    71    1
     3    38    37    2
     4    75    74    1
     5    64    63    2
     6    71    70    1
     7    71    74    1
     8    37    36    1
     9    74    76    1
    10    68    67    2
    11    63    62    1
    12    36    35    1
    13    36    39    1
    14    66    67    1
    15    66    65    1
    16    58    57    2
    17    80    79    2
    18    67    69   am
    19    62    65    1
    20    62    61    1
    21    90    89    1
    22    39    40    1
    23    89    91    1
    24    89    88    1
    25    79    78    1
    26    57    61   am
    27    57    56    1
    28    41    40    2
    29    43    44    1
    30    40    42   am
    31    56    55    1
    32    56    59    1
    33    84    85    1
    34    55    45   am
    35    78    81    1
    36    78    77    1
    37    45    46    2
    38    45    44    1
    39    44    47    1
    40    88    85    1
    41    81    83    1
    42    81    82    1
    43    85    86    1
    44    30    29    2
    45    59    60    1
    46    47    48    1
    47    29    28    1
    48    10     9    1
    49    86    87    2
    50     1     2    1
    51     2     3    1
    52    27    28    1
    53    49    48   ar
    54    49    51   ar
    55    48    50   ar
    56    28    31    1
    57     5     3   am
    58     5     6    1
    59     3     4    2
    60     9     6    1
    61   107   105   ar
    62   107   108   ar
    63     6     7    1
    64   105   104   ar
    65    51    53   ar
    66    50    52   ar
    67   108   106   ar
    68    31    32    1
    69    25    24   ar
    70    32    33    1
    71    32    34    1
    72     7    11   am
    73     7     8    2
    74    53    52   ar
    75    53    54    1
    76   104   106   ar
    77   104   103    1
    78    11    12    1
    79    24    23    1
    80    24    26   ar
    81    98    96    1
    82    92    93    1
    83    21    20    2
    84    22    23    1
    85    22    19    1
    86   103   100    1
    87   102   101    2
    88    18    19    1
    89    18    13   am
    90   100   101    1
    91   100    99    1
    92    12    13    1
    93    12    15    1
    94    93    96    1
    95    93    94    1
    96    20    19    1
    97   101   109   am
    98    13    14    2
    99    17    15    1
   100    96    97    1
   101    15    16    1
   102    94    95    2
   103   109   110    1
   104   110   111    1
   105   110   113    1
   106   115   114    1
   107   111   112    2
   108   116   114    1
   109   114   113    1
