@<TRIPOS>MOLECULE
tmp/1xzlA00.pdb
 116 109 0 0 0
SMALL
GASTEIGER

@<TRIPOS>ATOM
      1  N          6.0990   57.1830   22.7190 N.3    25  GLY25      -0.1210
      2  CA         6.9160   56.5600   21.7000 C.3    25  GLY25       0.1956
      3  C          8.1610   55.9000   22.2790 C.2    25  GLY25       0.2613
      4  O          8.4390   55.9770   23.4790 O.2    25  GLY25      -0.2717
      5  N          8.9320   55.2610   21.4080 N.am   26  SER26      -0.1938
      6  CA        10.1600   54.5900   21.8210 C.3    26  SER26       0.2055
      7  C         11.1870   55.5310   22.4580 C.2    26  SER26       0.2644
      8  O         11.4240   56.6330   21.9590 O.2    26  SER26      -0.2714
      9  CB        10.7900   53.9010   20.6050 C.3    26  SER26       0.2130
     10  OG         9.9570   52.8500   20.1410 O.3    26  SER26      -0.2179
     11  N         11.7820   55.0790   23.5630 N.am   27  THR27      -0.1936
     12  CA        12.8220   55.8120   24.2850 C.3    27  THR27       0.2028
     13  C         12.3670   57.1260   24.9370 C.2    27  THR27       0.2642
     14  O         13.1940   57.8890   25.4380 O.2    27  THR27      -0.2714
     15  CB        14.0220   56.1000   23.3330 C.3    27  THR27       0.1808
     16  OG1       14.1190   55.0490   22.3480 O.3    27  THR27      -0.2208
     17  CG2       15.3420   56.1760   24.1250 C.3    27  THR27       0.0379
     18  N         11.0700   57.4130   24.9240 N.am   28  GLU28      -0.1976
     19  CA        10.5910   58.6500   25.5270 C.3    28  GLU28       0.1602
     20  C         10.5120   58.5500   27.0420 C.2    28  GLU28       0.2287
     21  O         10.3680   57.4600   27.5960 O.2    28  GLU28      -0.2864
     22  CB         9.2400   59.0530   24.9370 C.3    28  GLU28       0.0415
     23  CG         9.3380   59.3880   23.4570 C.3    28  GLU28       0.1163
     24  CD         8.1540   60.1750   22.9620 C.2    28  GLU28       0.3649
     25  OE1        7.0090   59.8200   23.2920 O.co2  28  GLU28      -0.2457
     26  OE2        8.3720   61.1530   22.2270 O.co2  28  GLU28      -0.2457
     27  N         12.9480   50.4400   21.9420 N.3    65  LEU65      -0.1245
     28  CA        13.0320   50.5540   20.4790 C.3    65  LEU65       0.1561
     29  C         12.9390   49.2080   19.7320 C.2    65  LEU65       0.2260
     30  O         12.1860   49.0790   18.7620 O.2    65  LEU65      -0.2867
     31  CB        14.3270   51.2770   20.0790 C.3    65  LEU65       0.0270
     32  CG        14.5050   51.5900   18.5960 C.3    65  LEU65       0.0019
     33  CD1       13.4960   52.6330   18.1740 C.3    65  LEU65       0.0001
     34  CD2       15.9310   52.0670   18.3480 C.3    65  LEU65       0.0001
     35  N          9.6470   47.2930   18.4550 N.3    68  ASN68      -0.1240
     36  CA         8.8820   47.6890   17.2620 C.3    68  ASN68       0.1653
     37  C          8.8530   46.5400   16.2450 C.2    68  ASN68       0.2266
     38  O          7.9330   46.4450   15.4220 O.2    68  ASN68      -0.2867
     39  CB         9.5190   48.9100   16.5750 C.3    68  ASN68       0.1155
     40  CG         9.1980   50.2240   17.2770 C.2    68  ASN68       0.2627
     41  OD1        8.0660   50.7000   17.2410 O.2    68  ASN68      -0.2716
     42  ND2       10.2070   50.8290   17.8980 N.am   68  ASN68      -0.0877
     43  N          1.8020   57.3440   20.2070 N.3   103  TYR103     -0.1227
     44  CA         2.7630   57.8180   19.2290 C.3   103  TYR103      0.1736
     45  C          3.7840   56.7290   18.9340 C.2   103  TYR103      0.2596
     46  O          4.3310   56.1140   19.8610 O.2   103  TYR103     -0.2718
     47  CB         3.4860   59.0620   19.7730 C.3   103  TYR103      0.0548
     48  CG         4.7530   59.4730   19.0230 C.ar  103  TYR103     -0.0200
     49  CD1        4.7610   59.6230   17.6350 C.ar  103  TYR103     -0.0009
     50  CD2        5.9350   59.7320   19.7190 C.ar  103  TYR103     -0.0009
     51  CE1        5.9130   60.0240   16.9670 C.ar  103  TYR103      0.0417
     52  CE2        7.0830   60.1310   19.0610 C.ar  103  TYR103      0.0417
     53  CZ         7.0660   60.2750   17.6840 C.ar  103  TYR103      0.1957
     54  OH         8.2130   60.6710   17.0250 O.3   103  TYR103     -0.2866
     55  N          4.0080   56.4650   17.6460 N.am  104  SER104     -0.1938
     56  CA         5.0150   55.5010   17.2260 C.3   104  SER104      0.2055
     57  C          4.7290   54.1180   17.8280 C.2   104  SER104      0.2642
     58  O          3.6650   53.5470   17.5730 O.2   104  SER104     -0.2714
     59  CB         6.3870   56.0420   17.6490 C.3   104  SER104      0.2130
     60  OG         7.4210   55.4350   16.9060 O.3   104  SER104     -0.2179
     61  N          5.6520   53.5650   18.6180 N.am  105  GLN105     -0.1976
     62  CA         5.3930   52.2580   19.2290 C.3   105  GLN105      0.1601
     63  C          4.1180   52.3410   20.0770 C.2   105  GLN105      0.2287
     64  O          3.3400   51.3890   20.1570 O.2   105  GLN105     -0.2864
     65  CB         6.5760   51.7860   20.0900 C.3   105  GLN105      0.0394
     66  CG         6.2880   50.4310   20.7340 C.3   105  GLN105      0.0908
     67  CD         7.4350   49.8470   21.5450 C.2   105  GLN105      0.2608
     68  OE1        7.2330   48.8850   22.3010 O.2   105  GLN105     -0.2717
     69  NE2        8.6390   50.3950   21.3810 N.am  105  GLN105     -0.0878
     70  N          2.9290   53.0240   13.3550 N.3   134  THR134     -0.1218
     71  CA         3.8150   52.0140   12.7760 C.3   134  THR134      0.1862
     72  C          3.1300   50.8730   12.0240 C.2   134  THR134      0.2287
     73  O          3.7750   50.1790   11.2360 O.2   134  THR134     -0.2866
     74  CB         4.7510   51.4200   13.8370 C.3   134  THR134      0.1770
     75  OG1        3.9630   50.8010   14.8550 O.3   134  THR134     -0.2211
     76  CG2        5.6340   52.5120   14.4510 C.3   134  THR134      0.0375
     77  N          7.6560   54.9420    8.7410 N.3   161  VAL161     -0.1245
     78  CA         6.9410   53.9400    9.5270 C.3   161  VAL161      0.1561
     79  C          5.4760   53.8410    9.1060 C.2   161  VAL161      0.2260
     80  O          4.8140   52.8500    9.3970 O.2   161  VAL161     -0.2867
     81  CB         7.0350   54.1720   11.0640 C.3   161  VAL161      0.0252
     82  CG1        8.5000   54.3550   11.4970 C.3   161  VAL161      0.0019
     83  CG2        6.1590   55.3360   11.4930 C.3   161  VAL161      0.0019
     84  N         10.4800   50.4150    9.2150 N.3   166  LEU166     -0.1245
     85  CA        10.7720   50.7120   10.6110 C.3   166  LEU166      0.1561
     86  C         11.9630   51.6700   10.6970 C.2   166  LEU166      0.2260
     87  O         12.6750   51.7280   11.6960 O.2   166  LEU166     -0.2867
     88  CB        11.0120   49.4300   11.4240 C.3   166  LEU166      0.0270
     89  CG         9.7480   48.6420   11.7970 C.3   166  LEU166      0.0019
     90  CD1       10.1330   47.4020   12.5770 C.3   166  LEU166      0.0001
     91  CD2        8.7870   49.5080   12.6060 C.3   166  LEU166      0.0001
     92  N         13.5210   55.3380   11.0080 N.3   168  VAL168     -0.1245
     93  CA        13.1440   56.6030   11.6250 C.3   168  VAL168      0.1561
     94  C         13.7850   57.7700   10.8820 C.2   168  VAL168      0.2260
     95  O         14.9960   57.9790   10.9640 O.2   168  VAL168     -0.2867
     96  CB        13.5760   56.6540   13.1030 C.3   168  VAL168      0.0252
     97  CG1       13.3050   58.0370   13.6840 C.3   168  VAL168      0.0019
     98  CG2       12.8320   55.5880   13.8950 C.3   168  VAL168      0.0019
     99  N          9.1610   61.6800   11.1670 N.3   172  HIS172     -0.1226
    100  CA         8.6140   60.9130   12.2950 C.3   172  HIS172      0.1752
    101  C          8.6690   61.7170   13.5920 C.2   172  HIS172      0.2595
    102  O          7.9320   61.4370   14.5410 O.2   172  HIS172     -0.2718
    103  CB         9.3980   59.6090   12.4840 C.3   172  HIS172      0.0759
    104  CG         8.7580   58.6410   13.4410 C.ar  172  HIS172      0.0818
    105  ND1        7.4650   58.1920   13.2970 N.ar  172  HIS172     -0.2268
    106  CD2        9.2520   58.0190   14.5410 C.ar  172  HIS172      0.1154
    107  CE1        7.1840   57.3290   14.2620 C.ar  172  HIS172      0.1986
    108  NE2        8.2520   57.2090   15.0300 N.ar  172  HIS172     -0.2212
    109  N          9.5400   62.7190   13.6260 N.am  173  LEU173     -0.1980
    110  CA         9.7360   63.5490   14.8090 C.3   173  LEU173      0.1596
    111  C          9.0730   64.9140   14.6750 C.2   173  LEU173      0.2287
    112  O          9.3540   65.8210   15.4570 O.2   173  LEU173     -0.2864
    113  CB        11.2410   63.7370   15.0490 C.3   173  LEU173      0.0297
    114  CG        12.0760   62.6140   15.6830 C.3   173  LEU173      0.0022
    115  CD1       11.7380   61.2640   15.1040 C.3   173  LEU173      0.0001
    116  CD2       13.5680   62.9070   15.4850 C.3   173  LEU173      0.0001
@<TRIPOS>BOND
     1    77    78    1
     2    79    80    2
     3    79    78    1
     4    84    85    1
     5    78    81    1
     6    85    86    1
     7    85    88    1
     8    86    87    2
     9    94    95    2
    10    94    93    1
    11    92    93    1
    12    81    83    1
    13    81    82    1
    14    99   100    1
    15    73    72    2
    16    88    89    1
    17    93    96    1
    18    89    90    1
    19    89    91    1
    20    72    71    1
    21   100   103    1
    22   100   101    1
    23   103   104    1
    24    71    70    1
    25    71    74    1
    26    96    97    1
    27    96    98    1
    28   105   104   ar
    29   105   107   ar
    30   104   106   ar
    31   101   109   am
    32   101   102    2
    33   109   110    1
    34    74    76    1
    35    74    75    1
    36   107   108   ar
    37   106   108   ar
    38   111   110    1
    39   111   112    2
    40   110   113    1
    41   113   114    1
    42   115   114    1
    43    38    37    2
    44   116   114    1
    45    37    36    1
    46    39    36    1
    47    39    40    1
    48    60    59    1
    49    51    49   ar
    50    51    53   ar
    51    54    53    1
    52    56    55    1
    53    56    59    1
    54    56    57    1
    55    41    40    2
    56    36    35    1
    57    40    42   am
    58    58    57    2
    59    49    48   ar
    60    55    45   am
    61    53    52   ar
    62    57    61   am
    63    33    32    1
    64    34    32    1
    65    32    31    1
    66    61    62    1
    67    30    29    2
    68    45    44    1
    69    45    46    2
    70    48    50   ar
    71    48    47    1
    72    52    50   ar
    73    62    63    1
    74    62    65    1
    75    44    47    1
    76    44    43    1
    77    29    28    1
    78    63    64    2
    79    31    28    1
    80    65    66    1
    81    10     9    1
    82    28    27    1
    83     9     6    1
    84    66    67    1
    85    69    67   am
    86     5     6    1
    87     5     3   am
    88    67    68    2
    89     2     3    1
    90     2     1    1
    91     6     7    1
    92     8     7    2
    93    26    24   ar
    94     3     4    2
    95    16    15    1
    96     7    11   am
    97    24    25   ar
    98    24    23    1
    99    15    17    1
   100    15    12    1
   101    23    22    1
   102    11    12    1
   103    12    13    1
   104    18    13   am
   105    18    19    1
   106    13    14    2
   107    22    19    1
   108    19    20    1
   109    20    21    2
