@<TRIPOS>MOLECULE
tmp/1xzmA00.pdb
 126 119 0 0 0
SMALL
GASTEIGER

@<TRIPOS>ATOM
      1  N          6.1300   57.1780   22.7250 N.3    25  GLY25      -0.1210
      2  CA         6.9460   56.5640   21.6950 C.3    25  GLY25       0.1956
      3  C          8.1830   55.8950   22.2690 C.2    25  GLY25       0.2612
      4  O          8.4580   55.9840   23.4690 O.2    25  GLY25      -0.2717
      5  N          8.9600   55.2550   21.4030 N.am   26  SER26      -0.1952
      6  CA        10.1650   54.5660   21.8430 C.3    26  SER26       0.1924
      7  C         11.1960   55.5070   22.4600 C.2    26  SER26       0.2314
      8  O         11.4180   56.6170   21.9680 O.2    26  SER26      -0.2863
      9  CB        10.8000   53.8100   20.6700 C.3    26  SER26       0.2116
     10  OG         9.9360   52.7870   20.1990 O.3    26  SER26      -0.2180
     11  N         11.0970   57.3950   24.9140 N.3    28  GLU28      -0.1245
     12  CA        10.6120   58.6320   25.5170 C.3    28  GLU28       0.1567
     13  C         10.5390   58.5390   27.0390 C.2    28  GLU28       0.2260
     14  O         10.4270   57.4430   27.5950 O.2    28  GLU28      -0.2867
     15  CB         9.2600   59.0270   24.9270 C.3    28  GLU28       0.0388
     16  CG         9.3490   59.4130   23.4610 C.3    28  GLU28       0.1160
     17  CD         8.1500   60.2000   22.9950 C.2    28  GLU28       0.3649
     18  OE1        7.0170   59.8330   23.3470 O.co2  28  GLU28      -0.2457
     19  OE2        8.3380   61.1910   22.2720 O.co2  28  GLU28      -0.2457
     20  N         12.9390   50.4080   21.9300 N.3    65  LEU65      -0.1231
     21  CA        13.0200   50.5090   20.4710 C.3    65  LEU65       0.1693
     22  C         12.9390   49.1640   19.7430 C.2    65  LEU65       0.2592
     23  O         12.2070   49.0240   18.7590 O.2    65  LEU65      -0.2718
     24  CB        14.3110   51.2320   20.0620 C.3    65  LEU65       0.0284
     25  CG        14.4530   51.5710   18.5790 C.3    65  LEU65       0.0019
     26  CD1       13.4440   52.6470   18.2050 C.3    65  LEU65       0.0001
     27  CD2       15.8770   52.0410   18.2840 C.3    65  LEU65       0.0001
     28  N         13.6710   48.1740   20.2410 N.am   66  GLY66      -0.1957
     29  CA        13.6870   46.8630   19.6120 C.3    66  GLY66       0.1869
     30  C         12.3370   46.1790   19.4970 C.2    66  GLY66       0.2309
     31  O         12.1010   45.4260   18.5430 O.2    66  GLY66      -0.2863
     32  N          9.6450   47.2360   18.4650 N.3    68  ASN68      -0.1225
     33  CA         8.8920   47.6380   17.2730 C.3    68  ASN68       0.1785
     34  C          8.8890   46.4940   16.2580 C.2    68  ASN68       0.2597
     35  O          7.9990   46.4020   15.4140 O.2    68  ASN68      -0.2718
     36  CB         9.5330   48.8730   16.6120 C.3    68  ASN68       0.1169
     37  CG         9.1990   50.1730   17.3280 C.2    68  ASN68       0.2627
     38  OD1        8.0670   50.6460   17.2820 O.2    68  ASN68      -0.2716
     39  ND2       10.2010   50.7780   17.9550 N.am   68  ASN68      -0.0877
     40  N          9.8930   45.6260   16.3560 N.am   69  ALA69      -0.1979
     41  CA        10.0520   44.5010   15.4420 C.3    69  ALA69       0.1597
     42  C          9.2230   43.2720   15.7900 C.2    69  ALA69       0.2287
     43  O          9.1370   42.3410   14.9830 O.2    69  ALA69      -0.2864
     44  CB        11.5110   44.1170   15.3450 C.3    69  ALA69       0.0319
     45  N          1.8260   57.3180   20.2140 N.3   103  TYR103     -0.1227
     46  CA         2.7880   57.8120   19.2400 C.3   103  TYR103      0.1736
     47  C          3.8110   56.7250   18.9510 C.2   103  TYR103      0.2596
     48  O          4.3380   56.0970   19.8800 O.2   103  TYR103     -0.2718
     49  CB         3.4980   59.0520   19.7940 C.3   103  TYR103      0.0548
     50  CG         4.7460   59.4790   19.0430 C.ar  103  TYR103     -0.0200
     51  CD1        4.7450   59.6300   17.6520 C.ar  103  TYR103     -0.0009
     52  CD2        5.9310   59.7450   19.7340 C.ar  103  TYR103     -0.0009
     53  CE1        5.8960   60.0370   16.9710 C.ar  103  TYR103      0.0417
     54  CE2        7.0800   60.1520   19.0670 C.ar  103  TYR103      0.0417
     55  CZ         7.0560   60.2950   17.6870 C.ar  103  TYR103      0.1957
     56  OH         8.2000   60.7010   17.0330 O.3   103  TYR103     -0.2866
     57  N          4.0550   56.4770   17.6640 N.am  104  SER104     -0.1938
     58  CA         5.0480   55.5010   17.2360 C.3   104  SER104      0.2055
     59  C          4.7500   54.1160   17.8310 C.2   104  SER104      0.2642
     60  O          3.6880   53.5460   17.5560 O.2   104  SER104     -0.2714
     61  CB         6.4390   56.0110   17.6340 C.3   104  SER104      0.2130
     62  OG         7.4470   55.4310   16.8250 O.3   104  SER104     -0.2179
     63  N          5.6600   53.5620   18.6340 N.am  105  GLN105     -0.1976
     64  CA         5.4050   52.2520   19.2430 C.3   105  GLN105      0.1601
     65  C          4.1270   52.3320   20.0820 C.2   105  GLN105      0.2287
     66  O          3.3570   51.3720   20.1560 O.2   105  GLN105     -0.2864
     67  CB         6.5820   51.7830   20.1200 C.3   105  GLN105      0.0394
     68  CG         6.3370   50.3920   20.7040 C.3   105  GLN105      0.0908
     69  CD         7.4770   49.8340   21.5390 C.2   105  GLN105      0.2608
     70  OE1        7.2760   48.8870   22.3100 O.2   105  GLN105     -0.2717
     71  NE2        8.6710   50.3960   21.3910 N.am  105  GLN105     -0.0878
     72  N          2.9330   53.0240   13.3590 N.3   134  THR134     -0.1218
     73  CA         3.8230   52.0080   12.7890 C.3   134  THR134      0.1862
     74  C          3.1470   50.8640   12.0300 C.2   134  THR134      0.2287
     75  O          3.7990   50.1600   11.2620 O.2   134  THR134     -0.2866
     76  CB         4.7570   51.4140   13.8640 C.3   134  THR134      0.1770
     77  OG1        3.9700   50.8590   14.9220 O.3   134  THR134     -0.2211
     78  CG2        5.6720   52.4940   14.4370 C.3   134  THR134      0.0375
     79  N          7.6550   54.9550    8.7740 N.3   161  VAL161     -0.1245
     80  CA         6.9410   53.9460    9.5550 C.3   161  VAL161      0.1561
     81  C          5.4760   53.8350    9.1450 C.2   161  VAL161      0.2260
     82  O          4.8270   52.8280    9.4170 O.2   161  VAL161     -0.2867
     83  CB         7.0440   54.1750   11.0870 C.3   161  VAL161      0.0252
     84  CG1        8.5110   54.3020   11.5090 C.3   161  VAL161      0.0019
     85  CG2        6.2220   55.3880   11.5140 C.3   161  VAL161      0.0019
     86  N         10.4870   50.4790    9.2220 N.3   166  LEU166     -0.1231
     87  CA        10.7830   50.7660   10.6170 C.3   166  LEU166      0.1693
     88  C         11.9350   51.7600   10.7160 C.2   166  LEU166      0.2592
     89  O         12.5240   51.9500   11.7800 O.2   166  LEU166     -0.2718
     90  CB        11.0770   49.4840   11.4020 C.3   166  LEU166      0.0284
     91  CG         9.8360   48.6540   11.7590 C.3   166  LEU166      0.0019
     92  CD1       10.2510   47.4120   12.5160 C.3   166  LEU166      0.0001
     93  CD2        8.8560   49.4820   12.5870 C.3   166  LEU166      0.0001
     94  N         12.2290   52.4220    9.6030 N.am  167  ILE167     -0.1966
     95  CA        13.2930   53.4150    9.5660 C.3   167  ILE167      0.1727
     96  C         12.7570   54.7150   10.1480 C.2   167  ILE167      0.2616
     97  O         11.6430   55.1390    9.8220 O.2   167  ILE167     -0.2715
     98  CB        13.7650   53.6870    8.1160 C.3   167  ILE167      0.0290
     99  CG1       14.2670   52.3960    7.4620 C.3   167  ILE167      0.0022
    100  CG2       14.8570   54.7490    8.1060 C.3   167  ILE167      0.0023
    101  CD1       15.4560   51.7730    8.1620 C.3   167  ILE167      0.0001
    102  N         13.5500   55.3420   11.0060 N.am  168  VAL168     -0.1977
    103  CA        13.1680   56.6050   11.6240 C.3   168  VAL168      0.1596
    104  C         13.7910   57.7750   10.8640 C.2   168  VAL168      0.2287
    105  O         15.0110   57.9630   10.8880 O.2   168  VAL168     -0.2864
    106  CB        13.6040   56.6610   13.1020 C.3   168  VAL168      0.0276
    107  CG1       13.3080   58.0220   13.6820 C.3   168  VAL168      0.0022
    108  CG2       12.8750   55.6000   13.8970 C.3   168  VAL168      0.0022
    109  N          9.1530   61.7400   11.1370 N.3   172  HIS172     -0.1226
    110  CA         8.6240   60.9790   12.2700 C.3   172  HIS172      0.1752
    111  C          8.6650   61.7990   13.5580 C.2   172  HIS172      0.2595
    112  O          7.9070   61.5350   14.4910 O.2   172  HIS172     -0.2718
    113  CB         9.4190   59.6820   12.4610 C.3   172  HIS172      0.0759
    114  CG         8.8020   58.7200   13.4350 C.ar  172  HIS172      0.0818
    115  ND1        7.5130   58.2480   13.3020 N.ar  172  HIS172     -0.2268
    116  CD2        9.3070   58.1180   14.5370 C.ar  172  HIS172      0.1154
    117  CE1        7.2540   57.3920   14.2750 C.ar  172  HIS172      0.1986
    118  NE2        8.3280   57.2960   15.0370 N.ar  172  HIS172     -0.2212
    119  N          9.5580   62.7820   13.6060 N.am  173  LEU173     -0.1980
    120  CA         9.7180   63.6370   14.7790 C.3   173  LEU173      0.1596
    121  C          9.0290   64.9880   14.6310 C.2   173  LEU173      0.2287
    122  O          9.2760   65.9010   15.4190 O.2   173  LEU173     -0.2864
    123  CB        11.2060   63.8870   15.0310 C.3   173  LEU173      0.0297
    124  CG        12.0710   62.6940   15.4140 C.3   173  LEU173      0.0022
    125  CD1       13.5480   63.1100   15.3700 C.3   173  LEU173      0.0001
    126  CD2       11.6810   62.2070   16.8030 C.3   173  LEU173      0.0001
@<TRIPOS>BOND
     1    99    98    1
     2    99   101    1
     3   100    98    1
     4    98    95    1
     5    79    80    1
     6    81    82    2
     7    81    80    1
     8    86    87    1
     9    80    83    1
    10    95    94    1
    11    95    96    1
    12    94    88   am
    13    97    96    2
    14    96   102   am
    15    87    88    1
    16    87    90    1
    17    88    89    2
    18   104   105    2
    19   104   103    1
    20   102   103    1
    21    83    84    1
    22    83    85    1
    23   109   110    1
    24    75    74    2
    25    90    91    1
    26   103   106    1
    27    91    92    1
    28    91    93    1
    29    74    73    1
    30   110   113    1
    31   110   111    1
    32   113   114    1
    33    73    72    1
    34    73    76    1
    35   106   107    1
    36   106   108    1
    37   115   114   ar
    38   115   117   ar
    39   114   116   ar
    40   111   119   am
    41   111   112    2
    42   119   120    1
    43    76    78    1
    44    76    77    1
    45   117   118   ar
    46   116   118   ar
    47   121   120    1
    48   121   122    2
    49   120   123    1
    50    43    42    2
    51   123   124    1
    52    44    41    1
    53   125   124    1
    54   124   126    1
    55    35    34    2
    56    41    42    1
    57    41    40    1
    58    34    40   am
    59    34    33    1
    60    36    33    1
    61    36    37    1
    62    62    61    1
    63    53    51   ar
    64    53    55   ar
    65    56    55    1
    66    58    61    1
    67    58    57    1
    68    58    59    1
    69    33    32    1
    70    38    37    2
    71    37    39   am
    72    60    59    2
    73    51    50   ar
    74    57    47   am
    75    55    54   ar
    76    59    63   am
    77    26    25    1
    78    27    25    1
    79    31    30    2
    80    25    24    1
    81    63    64    1
    82    23    22    2
    83    47    46    1
    84    47    48    2
    85    50    52   ar
    86    50    49    1
    87    54    52   ar
    88    46    49    1
    89    46    45    1
    90    64    65    1
    91    64    67    1
    92    30    29    1
    93    29    28    1
    94    22    28   am
    95    22    21    1
    96    24    21    1
    97    65    66    2
    98    67    68    1
    99    10     9    1
   100    21    20    1
   101     9     6    1
   102    68    69    1
   103    71    69   am
   104     5     6    1
   105     5     3   am
   106    69    70    2
   107     2     3    1
   108     2     1    1
   109     6     7    1
   110     8     7    2
   111     3     4    2
   112    19    17   ar
   113    17    18   ar
   114    17    16    1
   115    16    15    1
   116    11    12    1
   117    15    12    1
   118    12    13    1
   119    13    14    2
