@<TRIPOS>MOLECULE
tmp/1xzwB01.pdb
 81 76 0 0 0
SMALL
GASTEIGER

@<TRIPOS>ATOM
      1  N         80.9830  -71.4750  122.7770 N.3     9  MET9       -0.1231
      2  CA        80.3900  -72.5260  121.9540 C.3     9  MET9        0.1687
      3  C         79.5170  -71.8900  120.8620 C.2     9  MET9        0.2434
      4  O         78.8870  -70.8450  121.0830 O.2     9  MET9       -0.2733
      5  CB        79.5440  -73.4740  122.8150 C.3     9  MET9        0.0400
      6  CG        80.3510  -74.2560  123.8370 C.3     9  MET9        0.0596
      7  SD        79.3540  -75.3570  124.8560 S.3     9  MET9       -0.1393
      8  CE        78.7870  -74.1890  126.1560 C.3     9  MET9        0.0692
      9  N         79.4790  -72.5090  119.6670 N.am   10  PRO10      -0.2729
     10  CA        78.6940  -72.0270  118.5210 C.3    10  PRO10       0.1401
     11  C         77.2130  -71.8950  118.8530 C.2    10  PRO10       0.2269
     12  O         76.7130  -72.5980  119.7240 O.2    10  PRO10      -0.2865
     13  CB        78.9600  -73.0790  117.4500 C.3    10  PRO10       0.0296
     14  CG        80.3320  -73.5550  117.7850 C.3    10  PRO10       0.0237
     15  CD        80.2760  -73.6870  119.2890 C.3    10  PRO10       0.0939
     16  N         75.2890  -75.1140  118.7760 N.3    13  SER13      -0.1202
     17  CA        75.7050  -76.1770  119.6760 C.3    13  SER13       0.2020
     18  C         74.5030  -76.9100  120.2730 C.2    13  SER13       0.2619
     19  O         73.4860  -76.3030  120.6040 O.2    13  SER13      -0.2717
     20  CB        76.5680  -75.5930  120.7890 C.3    13  SER13       0.2103
     21  OG        77.7100  -74.9630  120.2430 O.3    13  SER13      -0.2182
     22  N         74.6210  -78.2220  120.4110 N.am   14  ASP14      -0.1959
     23  CA        73.5320  -79.0230  120.9540 C.3    14  ASP14       0.1840
     24  C         73.0600  -78.4910  122.2960 C.2    14  ASP14       0.2621
     25  O         71.8660  -78.4400  122.5840 O.2    14  ASP14      -0.2715
     26  CB        73.9760  -80.4840  121.0990 C.3    14  ASP14       0.1450
     27  CG        75.1980  -80.6470  121.9810 C.2    14  ASP14       0.3671
     28  OD1       75.8940  -79.6460  122.2400 O.co2  14  ASP14      -0.2456
     29  OD2       75.4720  -81.7880  122.4070 O.co2  14  ASP14      -0.2456
     30  N         74.0140  -78.0820  123.1170 N.am   15  VAL15      -0.1977
     31  CA        73.7070  -77.5680  124.4400 C.3    15  VAL15       0.1596
     32  C         72.8560  -76.2860  124.4090 C.2    15  VAL15       0.2287
     33  O         72.3470  -75.8520  125.4370 O.2    15  VAL15      -0.2864
     34  CB        75.0190  -77.3290  125.2070 C.3    15  VAL15       0.0276
     35  CG1       75.6290  -76.0000  124.8020 C.3    15  VAL15       0.0022
     36  CG2       74.7560  -77.4210  126.6790 C.3    15  VAL15       0.0022
     37  N         83.8240  -74.1240  125.7150 N.3   139  HIS139     -0.1241
     38  CA        83.8830  -75.5830  125.7470 C.3   139  HIS139      0.1621
     39  C         84.3880  -76.0590  127.1090 C.2   139  HIS139      0.2264
     40  O         84.0040  -77.1290  127.5730 O.2   139  HIS139     -0.2867
     41  CB        84.7790  -76.1020  124.6180 C.3   139  HIS139      0.0745
     42  CG        84.0930  -76.1570  123.2830 C.ar  139  HIS139      0.0817
     43  ND1       83.0680  -77.0410  123.0060 N.ar  139  HIS139     -0.2268
     44  CD2       84.2690  -75.4230  122.1550 C.ar  139  HIS139      0.1154
     45  CE1       82.6430  -76.8480  121.7680 C.ar  139  HIS139      0.1986
     46  NE2       83.3540  -75.8730  121.2300 N.ar  139  HIS139     -0.2212
     47  N         81.5820  -76.2130  129.5170 N.3   142  ASN142     -0.1240
     48  CA        80.7830  -77.4140  129.3950 C.3   142  ASN142      0.1653
     49  C         81.4340  -78.5580  130.1550 C.2   142  ASN142      0.2266
     50  O         80.7500  -79.3410  130.8080 O.2   142  ASN142     -0.2867
     51  CB        80.6150  -77.7760  127.9220 C.3   142  ASN142      0.1155
     52  CG        79.4940  -78.7780  127.6960 C.2   142  ASN142      0.2627
     53  OD1       78.4300  -78.6630  128.3030 O.2   142  ASN142     -0.2716
     54  ND2       79.7340  -79.7500  126.8190 N.am  142  ASN142     -0.0877
     55  N         80.0240  -80.6970  133.2860 N.3   146  THR146     -0.1218
     56  CA        79.9260  -82.1390  133.1200 C.3   146  THR146      0.1862
     57  C         80.5840  -82.8120  134.3200 C.2   146  THR146      0.2287
     58  O         80.0220  -83.7280  134.9270 O.2   146  THR146     -0.2866
     59  CB        80.6370  -82.6080  131.8350 C.3   146  THR146      0.1770
     60  OG1       80.0340  -81.9800  130.7010 O.3   146  THR146     -0.2211
     61  CG2       80.5230  -84.1120  131.6810 C.3   146  THR146      0.0375
     62  N         78.5380  -82.7320  137.4670 N.3   149  GLU149     -0.1245
     63  CA        77.4370  -83.6860  137.4010 C.3   149  GLU149      0.1567
     64  C         77.8720  -85.1190  137.6720 C.2   149  GLU149      0.2260
     65  O         77.1200  -85.8970  138.2530 O.2   149  GLU149     -0.2867
     66  CB        76.7490  -83.5980  136.0290 C.3   149  GLU149      0.0388
     67  CG        76.0220  -82.2680  135.7990 C.3   149  GLU149      0.1160
     68  CD        75.3480  -82.1560  134.4290 C.2   149  GLU149      0.3649
     69  OE1       76.0390  -82.3350  133.4020 O.co2 149  GLU149     -0.2457
     70  OE2       74.1230  -81.8790  134.3870 O.co2 149  GLU149     -0.2457
     71  N         70.2840  -77.8980  132.2480 N.3   187  ARG187     -0.1245
     72  CA        70.3880  -79.3130  132.5930 C.3   187  ARG187      0.1563
     73  C         70.7450  -79.5450  134.0540 C.2   187  ARG187      0.2260
     74  O         70.5490  -80.6430  134.5800 O.2   187  ARG187     -0.2867
     75  CB        71.4010  -80.0220  131.6750 C.3   187  ARG187      0.0307
     76  CG        72.8710  -79.6960  131.8780 C.3   187  ARG187      0.0489
     77  CD        73.7000  -80.4850  130.8640 C.3   187  ARG187      0.2205
     78  NE        75.1090  -80.6020  131.2350 N.pl3 187  ARG187     -0.0865
     79  CZ        76.1200  -80.1790  130.4830 C.cat 187  ARG187      0.5346
     80  NH1       75.8830  -79.6040  129.3110 N.pl3 187  ARG187      0.1354
     81  NH2       77.3660  -80.3360  130.8980 N.pl3 187  ARG187      0.1354
@<TRIPOS>BOND
     1    13    14    1
     2    13    10    1
     3    14    15    1
     4    10    11    1
     5    10     9    1
     6    16    17    1
     7    11    12    2
     8    15     9    1
     9     9     3   am
    10    17    18    1
    11    17    20    1
    12    21    20    1
    13    18    22   am
    14    18    19    2
    15    22    23    1
    16     3     4    2
    17     3     2    1
    18    23    26    1
    19    23    24    1
    20    26    27    1
    21    46    45   ar
    22    46    44   ar
    23    45    43   ar
    24     2     1    1
    25     2     5    1
    26    27    28   ar
    27    27    29   ar
    28    44    42   ar
    29    24    25    2
    30    24    30   am
    31     5     6    1
    32    43    42   ar
    33    30    31    1
    34    42    41    1
    35     6     7    1
    36    32    31    1
    37    32    33    2
    38    31    34    1
    39    41    38    1
    40    35    34    1
    41     7     8    1
    42    34    36    1
    43    37    38    1
    44    38    39    1
    45    54    52   am
    46    39    40    2
    47    52    51    1
    48    52    53    2
    49    51    48    1
    50    80    79    1
    51    48    47    1
    52    48    49    1
    53    49    50    2
    54    79    81    1
    55    79    78    2
    56    60    59    1
    57    77    78    1
    58    77    76    1
    59    75    76    1
    60    75    72    1
    61    61    59    1
    62    59    56    1
    63    71    72    1
    64    72    73    1
    65    56    55    1
    66    56    57    1
    67    69    68   ar
    68    73    74    2
    69    57    58    2
    70    70    68   ar
    71    68    67    1
    72    67    66    1
    73    66    63    1
    74    63    62    1
    75    63    64    1
    76    64    65    2
