@<TRIPOS>MOLECULE
tmp/1xzwA01.pdb
 83 77 0 0 0
SMALL
GASTEIGER

@<TRIPOS>ATOM
      1  N         65.4310  -25.6180  164.4280 N.3     9  MET9       -0.1245
      2  CA        64.5930  -24.4270  164.5570 C.3     9  MET9        0.1570
      3  C         63.1220  -24.8420  164.5490 C.2     9  MET9        0.2261
      4  O         62.7470  -25.8100  163.8770 O.2     9  MET9       -0.2867
      5  CB        64.8670  -23.4460  163.4070 C.3     9  MET9        0.0387
      6  CG        66.2820  -22.8810  163.4160 C.3     9  MET9        0.0595
      7  SD        66.5630  -21.7500  162.0470 S.3     9  MET9       -0.1393
      8  CE        67.0550  -22.9170  160.7210 C.3     9  MET9        0.0692
      9  N         59.3880  -20.8830  162.7990 N.3    13  SER13      -0.1202
     10  CA        60.4990  -19.9670  162.6110 C.3    13  SER13       0.2020
     11  C         60.3190  -19.1280  161.3470 C.2    13  SER13       0.2619
     12  O         59.8360  -19.6190  160.3230 O.2    13  SER13      -0.2717
     13  CB        61.7990  -20.7530  162.5350 C.3    13  SER13       0.2103
     14  OG        61.9900  -21.4790  163.7350 O.3    13  SER13      -0.2182
     15  N         60.7070  -17.8590  161.4250 N.am   14  ASP14      -0.1959
     16  CA        60.5710  -16.9600  160.2860 C.3    14  ASP14       0.1840
     17  C         61.2140  -17.5370  159.0330 C.2    14  ASP14       0.2621
     18  O         60.6570  -17.4630  157.9330 O.2    14  ASP14      -0.2715
     19  CB        61.1860  -15.5930  160.6230 C.3    14  ASP14       0.1450
     20  CG        62.6450  -15.6810  161.0110 C.2    14  ASP14       0.3671
     21  OD1       63.1270  -16.7940  161.3070 O.co2  14  ASP14      -0.2456
     22  OD2       63.3110  -14.6260  161.0280 O.co2  14  ASP14      -0.2456
     23  N         62.3850  -18.1290  159.2120 N.am   15  VAL15      -0.1977
     24  CA        63.1220  -18.7110  158.1100 C.3    15  VAL15       0.1596
     25  C         62.3620  -19.8540  157.4080 C.2    15  VAL15       0.2287
     26  O         62.7620  -20.3020  156.3320 O.2    15  VAL15      -0.2864
     27  CB        64.4860  -19.2030  158.6180 C.3    15  VAL15       0.0276
     28  CG1       64.3480  -20.5710  159.2650 C.3    15  VAL15       0.0022
     29  CG2       65.4730  -19.1900  157.4820 C.3    15  VAL15       0.0022
     30  N         69.6710  -23.5820  164.9550 N.3   139  HIS139     -0.1241
     31  CA        69.9470  -22.1540  165.0560 C.3   139  HIS139      0.1621
     32  C         71.3770  -21.8700  164.6070 C.2   139  HIS139      0.2264
     33  O         71.6500  -20.8070  164.0560 O.2   139  HIS139     -0.2867
     34  CB        69.7100  -21.6610  166.4920 C.3   139  HIS139      0.0745
     35  CG        68.2640  -21.3990  166.8070 C.ar  139  HIS139      0.0817
     36  ND1       67.5500  -20.3650  166.2320 N.ar  139  HIS139     -0.2268
     37  CD2       67.3910  -22.0520  167.6150 C.ar  139  HIS139      0.1154
     38  CE1       66.3020  -20.3950  166.6710 C.ar  139  HIS139      0.1986
     39  NE2       66.1790  -21.4080  167.5110 N.ar  139  HIS139     -0.2212
     40  N         71.5320  -21.5270  160.9320 N.3   142  ASN142     -0.1240
     41  CA        71.1220  -20.2250  160.4490 C.3   142  ASN142      0.1653
     42  C         72.2850  -19.2510  160.5360 C.2   142  ASN142      0.2266
     43  O         72.4880  -18.4340  159.6420 O.2   142  ASN142     -0.2867
     44  CB        69.9350  -19.7170  161.2700 C.3   142  ASN142      0.1155
     45  CG        69.2260  -18.5640  160.6020 C.2   142  ASN142      0.2627
     46  OD1       69.0090  -18.5820  159.3870 O.2   142  ASN142     -0.2716
     47  ND2       68.8550  -17.5650  161.3940 N.am  142  ASN142     -0.0877
     48  N         74.1570  -17.2050  157.5790 N.3   146  THR146     -0.1218
     49  CA        74.1830  -15.7510  157.6910 C.3   146  THR146      0.1862
     50  C         75.6090  -15.2810  157.4840 C.2   146  THR146      0.2287
     51  O         75.8660  -14.3540  156.7080 O.2   146  THR146     -0.2866
     52  CB        73.7030  -15.2800  159.0780 C.3   146  THR146      0.1770
     53  OG1       72.3550  -15.7160  159.2940 O.3   146  THR146     -0.2211
     54  CG2       73.7440  -13.7670  159.1680 C.3   146  THR146      0.0375
     55  N         76.7550  -15.3500  153.8990 N.3   149  GLU149     -0.1231
     56  CA        76.1710  -14.2550  153.1400 C.3   149  GLU149      0.1699
     57  C         76.8730  -12.9210  153.3840 C.2   149  GLU149      0.2592
     58  O         76.9770  -12.1050  152.4750 O.2   149  GLU149     -0.2718
     59  CB        74.6750  -14.1350  153.4730 C.3   149  GLU149      0.0402
     60  CG        73.8510  -15.3240  152.9810 C.3   149  GLU149      0.1161
     61  CD        72.3710  -15.2290  153.3170 C.2   149  GLU149      0.3649
     62  OE1       72.0270  -15.0700  154.5110 O.co2 149  GLU149     -0.2457
     63  OE2       71.5510  -15.3240  152.3790 O.co2 149  GLU149     -0.2457
     64  N         77.3670  -12.7090  154.6000 N.am  150  GLN150     -0.1979
     65  CA        78.0310  -11.4590  154.9350 C.3   150  GLN150      0.1601
     66  C         79.5330  -11.4940  154.6930 C.2   150  GLN150      0.2287
     67  O         80.2000  -10.4600  154.7480 O.2   150  GLN150     -0.2864
     68  CB        77.7620  -11.1090  156.3990 C.3   150  GLN150      0.0394
     69  CG        76.2980  -11.2600  156.7970 C.3   150  GLN150      0.0908
     70  CD        75.9870  -10.6370  158.1420 C.2   150  GLN150      0.2608
     71  OE1       76.6560  -10.9130  159.1460 O.2   150  GLN150     -0.2717
     72  NE2       74.9650   -9.7920  158.1700 N.am  150  GLN150     -0.0878
     73  N         66.8980  -18.5480  150.5570 N.3   187  ARG187     -0.1245
     74  CA        67.4440  -17.1960  150.4970 C.3   187  ARG187      0.1563
     75  C         68.8290  -17.1400  149.8660 C.2   187  ARG187      0.2260
     76  O         69.2890  -16.0690  149.4510 O.2   187  ARG187     -0.2867
     77  CB        67.4700  -16.5590  151.8950 C.3   187  ARG187      0.0307
     78  CG        68.4920  -17.0900  152.8720 C.3   187  ARG187      0.0489
     79  CD        68.3410  -16.3540  154.1970 C.3   187  ARG187      0.2205
     80  NE        69.5180  -16.4710  155.0560 N.pl3 187  ARG187     -0.0865
     81  CZ        69.5060  -16.9670  156.2930 C.cat 187  ARG187      0.5346
     82  NH1       68.3710  -17.4130  156.8290 N.pl3 187  ARG187      0.1354
     83  NH2       70.6320  -16.9990  157.0020 N.pl3 187  ARG187      0.1354
@<TRIPOS>BOND
     1    76    75    2
     2    75    74    1
     3    74    73    1
     4    74    77    1
     5    77    78    1
     6    63    61   ar
     7    58    57    2
     8    78    79    1
     9    60    61    1
    10    60    59    1
    11    56    57    1
    12    56    59    1
    13    56    55    1
    14    61    62   ar
    15    57    64   am
    16    79    80    1
    17    64    65    1
    18    66    67    2
    19    66    65    1
    20    65    68    1
    21    80    81    2
    22    81    82    1
    23    81    83    1
    24    26    25    2
    25    68    69    1
    26    51    50    2
    27    69    70    1
    28    25    24    1
    29    29    27    1
    30    50    49    1
    31    48    49    1
    32    49    52    1
    33    18    17    2
    34    24    27    1
    35    24    23    1
    36    70    72   am
    37    70    71    2
    38    27    28    1
    39    17    23   am
    40    17    16    1
    41    52    54    1
    42    52    53    1
    43    46    45    2
    44    43    42    2
    45    16    19    1
    46    16    15    1
    47    12    11    2
    48    41    42    1
    49    41    40    1
    50    41    44    1
    51    45    44    1
    52    45    47   am
    53    19    20    1
    54     8     7    1
    55    20    22   ar
    56    20    21   ar
    57    11    15   am
    58    11    10    1
    59     7     6    1
    60    13    10    1
    61    13    14    1
    62    10     9    1
    63     5     6    1
    64     5     2    1
    65     4     3    2
    66    33    32    2
    67     1     2    1
    68     3     2    1
    69    32    31    1
    70    30    31    1
    71    31    34    1
    72    36    38   ar
    73    36    35   ar
    74    34    35    1
    75    38    39   ar
    76    35    37   ar
    77    39    37   ar
