@<TRIPOS>MOLECULE
tmp/1y01B01.pdb
 101 97 0 0 0
SMALL
GASTEIGER

@<TRIPOS>ATOM
      1  N         19.6170   10.4680    5.4500 N.3    28  LEU28      -0.1245
      2  CA        19.4380   11.1810    6.7080 C.3    28  LEU28       0.1561
      3  C         18.1210   11.9230    6.7240 C.2    28  LEU28       0.2260
      4  O         17.4100   11.9530    7.7300 O.2    28  LEU28      -0.2867
      5  CB        20.5450   12.2090    6.9270 C.3    28  LEU28       0.0270
      6  CG        21.7940   11.8870    7.7590 C.3    28  LEU28       0.0019
      7  CD1       21.4290   11.0110    8.9700 C.3    28  LEU28       0.0001
      8  CD2       22.8210   11.2160    6.8630 C.3    28  LEU28       0.0001
      9  N         15.0920    9.7830    7.2010 N.3    31  MET31      -0.1230
     10  CA        15.0570    9.3650    8.5860 C.3    31  MET31       0.1702
     11  C         14.2980   10.3970    9.3990 C.2    31  MET31       0.2592
     12  O         13.3470   10.0630   10.1240 O.2    31  MET31      -0.2718
     13  CB        16.4870    9.2050    9.1160 C.3    31  MET31       0.0401
     14  CG        16.5740    8.7260   10.5590 C.3    31  MET31       0.0596
     15  SD        18.2790    8.4890   11.0810 S.3    31  MET31      -0.1393
     16  CE        18.8040   10.1630   11.4900 C.3    31  MET31       0.0692
     17  N         14.7220   11.6550    9.2520 N.am   32  PHE32      -0.1976
     18  CA        14.1260   12.7760    9.9730 C.3    32  PHE32       0.1639
     19  C         12.6620   12.9570    9.6180 C.2    32  PHE32       0.2290
     20  O         11.9080   13.6010   10.3530 O.2    32  PHE32      -0.2864
     21  CB        14.8800   14.0780    9.6830 C.3    32  PHE32       0.0560
     22  CG        16.3190   14.0870   10.1550 C.ar   32  PHE32      -0.0200
     23  CD1       16.6750   13.5280   11.3620 C.ar   32  PHE32      -0.0042
     24  CD2       17.3110   14.7210    9.4030 C.ar   32  PHE32      -0.0042
     25  CE1       18.0010   13.6020   11.8150 C.ar   32  PHE32      -0.0003
     26  CE2       18.6400   14.7980    9.8540 C.ar   32  PHE32      -0.0003
     27  CZ        18.9760   14.2390   11.0570 C.ar   32  PHE32      -0.0000
     28  N         18.6470   15.9770   18.4630 N.3    42  PHE42      -0.1241
     29  CA        19.5660   16.9420   17.8720 C.3    42  PHE42       0.1605
     30  C         19.0630   18.3780   17.8740 C.2    42  PHE42       0.2264
     31  O         18.3080   18.7950   16.9980 O.2    42  PHE42      -0.2867
     32  CB        19.8960   16.4890   16.4590 C.3    42  PHE42       0.0534
     33  CG        20.3000   15.0540   16.3830 C.ar   42  PHE42      -0.0203
     34  CD1       21.5560   14.6560   16.8140 C.ar   42  PHE42      -0.0042
     35  CD2       19.4040   14.0890   15.9430 C.ar   42  PHE42      -0.0042
     36  CE1       21.9170   13.3160   16.8130 C.ar   42  PHE42      -0.0003
     37  CE2       19.7560   12.7540   15.9410 C.ar   42  PHE42      -0.0003
     38  CZ        21.0180   12.3690   16.3790 C.ar   42  PHE42      -0.0000
     39  N         22.3480   21.1540   16.1250 N.3    45  PHE45      -0.1241
     40  CA        22.8280   20.9440   14.7710 C.3    45  PHE45       0.1605
     41  C         21.7690   21.3310   13.7720 C.2    45  PHE45       0.2264
     42  O         20.5690   21.2910   14.0890 O.2    45  PHE45      -0.2867
     43  CB        23.2300   19.4780   14.5920 C.3    45  PHE45       0.0534
     44  CG        24.2910   19.0380   15.5520 C.ar   45  PHE45      -0.0203
     45  CD1       23.9600   18.3520   16.7160 C.ar   45  PHE45      -0.0042
     46  CD2       25.6210   19.3950   15.3390 C.ar   45  PHE45      -0.0042
     47  CE1       24.9450   18.0350   17.6570 C.ar   45  PHE45      -0.0003
     48  CE2       26.6030   19.0800   16.2760 C.ar   45  PHE45      -0.0003
     49  CZ        26.2690   18.4020   17.4320 C.ar   45  PHE45      -0.0000
     50  N         19.4010   20.6290   11.0700 N.3    47  LEU47      -0.1245
     51  CA        18.7350   19.4910   10.4690 C.3    47  LEU47       0.1561
     52  C         17.7730   19.9550    9.3910 C.2    47  LEU47       0.2260
     53  O         16.8520   19.2270    9.0160 O.2    47  LEU47      -0.2867
     54  CB        17.9550   18.7210   11.5350 C.3    47  LEU47       0.0270
     55  CG        18.6270   17.6390   12.3860 C.3    47  LEU47       0.0019
     56  CD1       20.0000   18.0690   12.8570 C.3    47  LEU47       0.0001
     57  CD2       17.7080   17.3190   13.5560 C.3    47  LEU47       0.0001
     58  N         24.2880   22.0630    5.7260 N.3    52  ALA52      -0.1231
     59  CA        25.6310   21.6900    5.3000 C.3    52  ALA52       0.1694
     60  C         26.1530   20.5560    6.1700 C.2    52  ALA52       0.2592
     61  O         26.9670   19.7370    5.7300 O.2    52  ALA52      -0.2718
     62  CB        26.5680   22.9050    5.3960 C.3    52  ALA52       0.0304
     63  N         25.6720   20.5140    7.4060 N.am   53  GLN53      -0.1966
     64  CA        26.1060   19.4950    8.3340 C.3    53  GLN53       0.1733
     65  C         25.6410   18.1520    7.8240 C.2    53  GLN53       0.2616
     66  O         26.4020   17.1860    7.8020 O.2    53  GLN53      -0.2715
     67  CB        25.5450   19.7840    9.7300 C.3    53  GLN53       0.0408
     68  CG        25.8840   21.1890   10.2200 C.3    53  GLN53       0.0908
     69  CD        25.6540   21.3910   11.7050 C.2    53  GLN53       0.2608
     70  OE1       24.5600   21.1600   12.2220 O.2    53  GLN53      -0.2717
     71  NE2       26.6900   21.8380   12.3980 N.am   53  GLN53      -0.0878
     72  N         24.3850   18.1070    7.4010 N.am   54  VAL54      -0.1977
     73  CA        23.8030   16.8990    6.8670 C.3    54  VAL54       0.1596
     74  C         24.5260   16.5220    5.5750 C.2    54  VAL54       0.2287
     75  O         24.8580   15.3520    5.3680 O.2    54  VAL54      -0.2864
     76  CB        22.3240   17.1060    6.5870 C.3    54  VAL54       0.0276
     77  CG1       21.7340   15.8720    5.9620 C.3    54  VAL54       0.0022
     78  CG2       21.6160   17.3990    7.8670 C.3    54  VAL54       0.0022
     79  N         27.4000   17.2240    4.8730 N.3    56  GLY56      -0.1210
     80  CA        28.7110   16.7880    5.2900 C.3    56  GLY56       0.1956
     81  C         28.6470   15.3830    5.8430 C.2    56  GLY56       0.2611
     82  O         29.4290   14.5200    5.4580 O.2    56  GLY56      -0.2717
     83  N         27.7020   15.1390    6.7390 N.am   57  HIS57      -0.1975
     84  CA        27.5800   13.8290    7.3350 C.3    57  HIS57       0.1656
     85  C         27.0850   12.7640    6.3750 C.2    57  HIS57       0.2291
     86  O         27.1370   11.5730    6.6820 O.2    57  HIS57      -0.2864
     87  CB        26.6690   13.8900    8.5430 C.3    57  HIS57       0.0771
     88  CG        27.2750   13.2900    9.7690 C.ar   57  HIS57       0.0820
     89  ND1       28.4580   13.7460   10.3000 N.ar   57  HIS57      -0.2267
     90  CD2       26.8810   12.2610   10.5560 C.ar   57  HIS57       0.1154
     91  CE1       28.7670   13.0240   11.3610 C.ar   57  HIS57       0.1986
     92  NE2       27.8270   12.1160   11.5390 N.ar   57  HIS57      -0.2212
     93  N         30.1700   11.5430    4.7680 N.3    60  LYS60      -0.1245
     94  CA        30.8580   10.7020    5.7390 C.3    60  LYS60       0.1561
     95  C         30.3350    9.2900    5.7090 C.2    60  LYS60       0.2260
     96  O         31.1000    8.3470    5.5270 O.2    60  LYS60      -0.2867
     97  CB        30.7020   11.2540    7.1580 C.3    60  LYS60       0.0271
     98  CG        31.4070   12.5760    7.3700 C.3    60  LYS60       0.0035
     99  CD        31.3750   12.9970    8.8210 C.3    60  LYS60       0.0206
    100  CE        32.0350   14.3460    8.9940 C.3    60  LYS60       0.1093
    101  NZ        33.4640   14.3270    8.5660 N.3    60  LYS60      -0.1314
@<TRIPOS>BOND
     1    93    94    1
     2    79    80    1
     3    80    81    1
     4    59    62    1
     5    59    58    1
     6    59    60    1
     7    75    74    2
     8     1     2    1
     9    82    81    2
    10    96    95    2
    11    74    73    1
    12    95    94    1
    13    61    60    2
    14    94    97    1
    15    81    83   am
    16    77    76    1
    17    60    63   am
    18    85    86    2
    19    85    84    1
    20    76    73    1
    21    76    78    1
    22     2     3    1
    23     2     5    1
    24     3     4    2
    25    83    84    1
    26     8     6    1
    27    73    72    1
    28     5     6    1
    29    97    98    1
    30     9    10    1
    31    84    87    1
    32    98    99    1
    33    72    65   am
    34    63    64    1
    35     6     7    1
    36    66    65    2
    37    65    64    1
    38    64    67    1
    39    87    88    1
    40   101   100    1
    41    10    13    1
    42    10    11    1
    43    99   100    1
    44    53    52    2
    45    13    14    1
    46    17    11   am
    47    17    18    1
    48    52    51    1
    49    11    12    2
    50    24    26   ar
    51    24    22   ar
    52    19    18    1
    53    19    20    2
    54    21    18    1
    55    21    22    1
    56    67    68    1
    57    88    89   ar
    58    88    90   ar
    59    26    27   ar
    60    22    23   ar
    61    68    69    1
    62    89    91   ar
    63    51    50    1
    64    51    54    1
    65    90    92   ar
    66    14    15    1
    67    27    25   ar
    68    15    16    1
    69    91    92   ar
    70    23    25   ar
    71    54    55    1
    72    69    70    2
    73    69    71   am
    74    55    56    1
    75    55    57    1
    76    41    42    2
    77    41    40    1
    78    43    40    1
    79    43    44    1
    80    40    39    1
    81    46    44   ar
    82    46    48   ar
    83    44    45   ar
    84    37    35   ar
    85    37    38   ar
    86    35    33   ar
    87    48    49   ar
    88    38    36   ar
    89    33    32    1
    90    33    34   ar
    91    32    29    1
    92    45    47   ar
    93    36    34   ar
    94    31    30    2
    95    49    47   ar
    96    29    30    1
    97    29    28    1
