@<TRIPOS>MOLECULE
tmp/1y0bD01.pdb
 150 140 0 0 0
SMALL
GASTEIGER

@<TRIPOS>ATOM
      1  N         11.3710   25.2090   55.6630 N.3    20  GLN20      -0.1231
      2  CA        12.4420   25.6380   56.5580 C.3    20  GLN20       0.1698
      3  C         12.0760   26.8300   57.4310 C.2    20  GLN20       0.2592
      4  O         12.7660   27.1120   58.4080 O.2    20  GLN20      -0.2718
      5  CB        13.6810   26.0040   55.7360 C.3    20  GLN20       0.0381
      6  CG        14.3290   24.8350   55.0050 C.3    20  GLN20       0.0905
      7  CD        15.2390   24.0390   55.9060 C.2    20  GLN20       0.2608
      8  OE1       14.7820   23.2360   56.7190 O.2    20  GLN20      -0.2717
      9  NE2       16.5430   24.2540   55.7650 N.am   20  GLN20      -0.0878
     10  N         11.0110   27.5420   57.0680 N.am   21  VAL21      -0.1966
     11  CA        10.6990   28.8160   57.7180 C.3    21  VAL21       0.1727
     12  C          9.2640   28.9010   58.2350 C.2    21  VAL21       0.2616
     13  O          8.3010   28.7570   57.4730 O.2    21  VAL21      -0.2715
     14  CB        10.9990   30.0280   56.7910 C.3    21  VAL21       0.0290
     15  CG1       10.6120   31.3350   57.4680 C.3    21  VAL21       0.0023
     16  CG2       12.4740   30.0590   56.3990 C.3    21  VAL21       0.0023
     17  N          9.1490   29.1300   59.5420 N.am   22  LEU22      -0.1963
     18  CA         7.8830   29.4300   60.2000 C.3    22  LEU22       0.1728
     19  C          7.8880   30.8940   60.6450 C.2    22  LEU22       0.2616
     20  O          8.7750   31.3210   61.3770 O.2    22  LEU22      -0.2715
     21  CB         7.6840   28.5230   61.4230 C.3    22  LEU22       0.0311
     22  CG         6.5220   28.8810   62.3630 C.3    22  LEU22       0.0022
     23  CD1        5.1870   28.6100   61.6800 C.3    22  LEU22       0.0001
     24  CD2        6.6310   28.1110   63.6750 C.3    22  LEU22       0.0001
     25  N          6.8940   31.6540   60.1970 N.am   23  LYS23      -0.1977
     26  CA         6.7610   33.0610   60.5650 C.3    23  LYS23       0.1596
     27  C          5.8970   33.1840   61.8210 C.2    23  LYS23       0.2287
     28  O          4.7510   32.7250   61.8480 O.2    23  LYS23      -0.2864
     29  CB         6.1550   33.8470   59.3920 C.3    23  LYS23       0.0298
     30  CG         6.0600   35.3580   59.5770 C.3    23  LYS23       0.0038
     31  CD         5.5100   36.0000   58.2980 C.3    23  LYS23       0.0206
     32  CE         5.1900   37.4780   58.4730 C.3    23  LYS23       0.1093
     33  NZ         4.4750   38.0000   57.2610 N.3    23  LYS23      -0.1314
     34  N          5.8570   36.3790   63.5870 N.3    25  ASP25      -0.1239
     35  CA         6.0580   37.8120   63.8120 C.3    25  ASP25       0.1674
     36  C          4.9770   38.4820   64.6640 C.2    25  ASP25       0.2266
     37  O          5.1860   39.5920   65.1640 O.2    25  ASP25      -0.2867
     38  CB         6.1760   38.5500   62.4750 C.3    25  ASP25       0.1410
     39  CG         7.5380   38.3760   61.8200 C.2    25  ASP25       0.3668
     40  OD1        8.4160   37.7060   62.3920 O.co2  25  ASP25      -0.2456
     41  OD2        7.7340   38.9250   60.7170 O.co2  25  ASP25      -0.2456
     42  N          8.7520   37.4170   67.0410 N.3    29  ASN29      -0.1240
     43  CA         9.9010   38.0020   66.3230 C.3    29  ASN29       0.1653
     44  C          9.7950   39.4590   65.8520 C.2    29  ASN29       0.2266
     45  O         10.7180   39.9690   65.2080 O.2    29  ASN29      -0.2867
     46  CB        10.2810   37.1280   65.1210 C.3    29  ASN29       0.1155
     47  CG        10.8430   35.7840   65.5270 C.2    29  ASN29       0.2627
     48  OD1       11.6300   35.6730   66.4710 O.2    29  ASN29      -0.2716
     49  ND2       10.4460   34.7500   64.8080 N.am   29  ASN29      -0.0877
     50  N         20.9260   36.1760   73.0210 N.3    58  ILE58      -0.1231
     51  CA        21.4780   36.9910   71.9580 C.3    58  ILE58       0.1692
     52  C         20.3730   37.9020   71.4120 C.2    58  ILE58       0.2592
     53  O         19.2130   37.4930   71.3300 O.2    58  ILE58      -0.2718
     54  CB        22.1080   36.1000   70.8380 C.3    58  ILE58       0.0266
     55  CG1       22.8420   36.9580   69.8000 C.3    58  ILE58       0.0019
     56  CG2       21.0500   35.1420   70.2150 C.3    58  ILE58       0.0020
     57  CD1       23.6240   36.1450   68.7530 C.3    58  ILE58       0.0001
     58  N         20.7290   39.1410   71.0780 N.am   59  GLU59      -0.1966
     59  CA        19.7900   40.0820   70.4580 C.3    59  GLU59       0.1733
     60  C         19.2870   39.5030   69.1260 C.2    59  GLU59       0.2617
     61  O         20.0250   38.7590   68.4860 O.2    59  GLU59      -0.2715
     62  CB        20.4630   41.4490   70.2610 C.3    59  GLU59       0.0429
     63  CG        21.6300   41.4720   69.2620 C.3    59  GLU59       0.1163
     64  CD        22.2770   42.8450   69.1160 C.2    59  GLU59       0.3649
     65  OE1       21.7720   43.8200   69.7120 O.co2  59  GLU59      -0.2457
     66  OE2       23.3010   42.9460   68.4010 O.co2  59  GLU59      -0.2457
     67  N         18.0440   39.7770   68.7110 N.am   60  SER60      -0.1936
     68  CA        17.0580   40.5950   69.4320 C.3    60  SER60       0.2055
     69  C         15.8980   39.7790   70.0100 C.2    60  SER60       0.2644
     70  O         15.4060   40.0900   71.0960 O.2    60  SER60      -0.2714
     71  CB        16.4950   41.6790   68.5000 C.3    60  SER60       0.2130
     72  OG        17.5260   42.5730   68.0930 O.3    60  SER60      -0.2179
     73  N         15.4630   38.7500   69.2790 N.am   61  SER61      -0.1935
     74  CA        14.2810   37.9590   69.6450 C.3    61  SER61       0.2055
     75  C         14.4320   37.1320   70.9240 C.2    61  SER61       0.2643
     76  O         13.4300   36.7610   71.5410 O.2    61  SER61      -0.2714
     77  CB        13.8620   37.0420   68.4910 C.3    61  SER61       0.2130
     78  OG        13.4410   37.7900   67.3600 O.3    61  SER61      -0.2179
     79  N         15.6690   36.8270   71.3070 N.am   62  GLY62      -0.1954
     80  CA        15.9240   36.0740   72.5370 C.3    62  GLY62       0.1869
     81  C         15.6880   36.8810   73.7980 C.2    62  GLY62       0.2309
     82  O         15.3960   36.3180   74.8520 O.2    62  GLY62      -0.2863
     83  N         25.5190   41.2510   68.0060 N.3    81  LYS81      -0.1245
     84  CA        25.8450   40.7770   66.6600 C.3    81  LYS81       0.1561
     85  C         26.5990   41.8100   65.8370 C.2    81  LYS81       0.2260
     86  O         27.2270   41.4670   64.8320 O.2    81  LYS81      -0.2867
     87  CB        24.5650   40.4440   65.8920 C.3    81  LYS81       0.0271
     88  CG        23.8210   39.2290   66.3500 C.3    81  LYS81       0.0035
     89  CD        22.4390   39.2540   65.7370 C.3    81  LYS81       0.0206
     90  CE        21.7030   37.9640   65.9740 C.3    81  LYS81       0.1093
     91  NZ        20.2670   38.1970   65.6880 N.3    81  LYS81      -0.1314
     92  N         26.7510   31.6320   59.1250 N.3    98  SER98      -0.1217
     93  CA        25.4430   31.8910   58.5420 C.3    98  SER98       0.1889
     94  C         25.2890   31.0550   57.2810 C.2    98  SER98       0.2288
     95  O         26.1400   31.0990   56.3870 O.2    98  SER98      -0.2866
     96  CB        25.2870   33.3790   58.2110 C.3    98  SER98       0.2089
     97  OG        24.1700   33.6040   57.3660 O.3    98  SER98      -0.2183
     98  N         22.8420   31.1980   54.9120 N.3   100  THR100     -0.1218
     99  CA        22.4800   32.0190   53.7540 C.3   100  THR100      0.1862
    100  C         23.6900   32.8030   53.2480 C.2   100  THR100      0.2287
    101  O         24.0050   32.7770   52.0540 O.2   100  THR100     -0.2866
    102  CB        21.3640   33.0380   54.0870 C.3   100  THR100      0.1770
    103  OG1       20.5330   32.5360   55.1390 O.3   100  THR100     -0.2211
    104  CG2       20.5130   33.3240   52.8510 C.3   100  THR100      0.0375
    105  N         17.0420   31.1340   74.0580 N.3   124  ASP124     -0.1225
    106  CA        16.9170   31.6630   72.6900 C.3   124  ASP124      0.1805
    107  C         15.5150   31.4090   72.1370 C.2   124  ASP124      0.2598
    108  O         14.7760   30.5670   72.6570 O.2   124  ASP124     -0.2718
    109  CB        17.9780   31.0370   71.7720 C.3   124  ASP124      0.1424
    110  CG        18.4490   31.9840   70.6660 C.2   124  ASP124      0.3668
    111  OD1       17.8500   33.0770   70.4590 O.co2 124  ASP124     -0.2456
    112  OD2       19.4310   31.6300   69.9810 O.co2 124  ASP124     -0.2456
    113  N         15.1590   32.1240   71.0710 N.am  125  ASP125     -0.1960
    114  CA        13.8130   32.0310   70.5150 C.3   125  ASP125      0.1840
    115  C         13.6350   30.7840   69.6440 C.2   125  ASP125      0.2622
    116  O         12.7150   30.0050   69.8750 O.2   125  ASP125     -0.2715
    117  CB        13.4250   33.3250   69.7740 C.3   125  ASP125      0.1450
    118  CG        14.2340   33.5510   68.5110 C.2   125  ASP125      0.3671
    119  OD1       15.4640   33.3260   68.5100 O.co2 125  ASP125     -0.2456
    120  OD2       13.6490   33.9710   67.4920 O.co2 125  ASP125     -0.2456
    121  N         14.5290   30.6020   68.6700 N.am  126  PHE126     -0.1974
    122  CA        14.5150   29.4530   67.7590 C.3   126  PHE126      0.1639
    123  C         15.7530   28.5810   67.9050 C.2   126  PHE126      0.2290
    124  O         16.8440   29.0740   68.1870 O.2   126  PHE126     -0.2864
    125  CB        14.4150   29.9190   66.3000 C.3   126  PHE126      0.0560
    126  CG        13.0030   30.0110   65.7830 C.ar  126  PHE126     -0.0200
    127  CD1       12.3700   28.8900   65.2440 C.ar  126  PHE126     -0.0042
    128  CD2       12.3070   31.2150   65.8340 C.ar  126  PHE126     -0.0042
    129  CE1       11.0670   28.9680   64.7570 C.ar  126  PHE126     -0.0003
    130  CE2       10.9970   31.3050   65.3520 C.ar  126  PHE126     -0.0003
    131  CZ        10.3760   30.1770   64.8140 C.ar  126  PHE126     -0.0000
    132  N         17.3680   25.9560   65.2200 N.3   128  ALA128     -0.1245
    133  CA        17.3010   25.4100   63.8730 C.3   128  ALA128      0.1562
    134  C         18.6040   24.6780   63.5700 C.2   128  ALA128      0.2260
    135  O         18.7520   23.5060   63.9200 O.2   128  ALA128     -0.2867
    136  CB        17.0480   26.5240   62.8630 C.3   128  ALA128      0.0290
    137  N         24.2200   29.8110   66.4700 N.3   132  ALA132     -0.1245
    138  CA        24.2140   30.8330   67.5130 C.3   132  ALA132      0.1562
    139  C         24.3150   30.2080   68.9010 C.2   132  ALA132      0.2260
    140  O         25.0160   30.7280   69.7660 O.2   132  ALA132     -0.2867
    141  CB        22.9630   31.6910   67.4190 C.3   132  ALA132      0.0290
    142  N         12.9520   23.5130   65.7440 N.3   156  LYS156     -0.1245
    143  CA        12.6810   22.6990   64.5600 C.3   156  LYS156      0.1561
    144  C         13.4890   21.4100   64.6790 C.2   156  LYS156      0.2260
    145  O         14.6910   21.3740   64.3880 O.2   156  LYS156     -0.2867
    146  CB        12.9830   23.4590   63.2710 C.3   156  LYS156      0.0271
    147  CG        11.9130   24.5050   62.9360 C.3   156  LYS156      0.0035
    148  CD        12.2650   25.3070   61.6920 C.3   156  LYS156      0.0206
    149  CE        13.3560   26.3170   61.9930 C.3   156  LYS156      0.1093
    150  NZ        14.0180   26.7790   60.7360 N.3   156  LYS156     -0.1314
@<TRIPOS>BOND
     1   101   100    2
     2   104   102    1
     3   100    99    1
     4    99   102    1
     5    99    98    1
     6   102   103    1
     7     6     5    1
     8     6     7    1
     9     1     2    1
    10     5     2    1
    11     9     7   am
    12     7     8    2
    13    95    94    2
    14    16    14    1
    15     2     3    1
    16    14    15    1
    17    14    11    1
    18    10     3   am
    19    10    11    1
    20    33    32    1
    21    94    93    1
    22    97    96    1
    23     3     4    2
    24    13    12    2
    25    11    12    1
    26    96    93    1
    27    12    17   am
    28    31    32    1
    29    31    30    1
    30    93    92    1
    31    29    30    1
    32    29    26    1
    33    17    18    1
    34    25    26    1
    35    25    19   am
    36    18    19    1
    37    18    21    1
    38    26    27    1
    39    19    20    2
    40    41    39   ar
    41   150   149    1
    42    21    22    1
    43    23    22    1
    44   148   149    1
    45   148   147    1
    46    39    40   ar
    47    39    38    1
    48    27    28    2
    49    22    24    1
    50    38    35    1
    51   136   133    1
    52   147   146    1
    53   146   143    1
    54   134   133    1
    55   134   135    2
    56    34    35    1
    57    35    36    1
    58   133   132    1
    59   145   144    2
    60   143   144    1
    61   143   142    1
    62    36    37    2
    63   129   131   ar
    64   129   127   ar
    65    49    47   am
    66   131   130   ar
    67    86    85    2
    68    46    47    1
    69    46    43    1
    70    45    44    2
    71   127   126   ar
    72   130   128   ar
    73    47    48    2
    74    91    90    1
    75    89    90    1
    76    89    88    1
    77   126   128   ar
    78   126   125    1
    79    85    84    1
    80    44    43    1
    81    87    88    1
    82    87    84    1
    83   125   122    1
    84    43    42    1
    85   137   138    1
    86    84    83    1
    87    78    77    1
    88   141   138    1
    89   120   118   ar
    90   138   139    1
    91   122   123    1
    92   122   121    1
    93   123   124    2
    94    72    71    1
    95    66    64   ar
    96    61    60    2
    97    77    74    1
    98    71    68    1
    99   119   118   ar
   100   118   117    1
   101   121   115   am
   102    67    60   am
   103    67    68    1
   104    57    55    1
   105   139   140    2
   106    64    63    1
   107    64    65   ar
   108    60    59    1
   109    63    62    1
   110    73    74    1
   111    73    69   am
   112    68    69    1
   113   115   116    2
   114   115   114    1
   115    74    75    1
   116   117   114    1
   117    55    54    1
   118   112   110   ar
   119    69    70    2
   120    56    54    1
   121    62    59    1
   122    59    58    1
   123   111   110   ar
   124   114   113    1
   125   110   109    1
   126    54    51    1
   127    75    79   am
   128    75    76    2
   129   113   107   am
   130    58    52   am
   131    79    80    1
   132    53    52    2
   133    52    51    1
   134   109   106    1
   135    51    50    1
   136   107   108    2
   137   107   106    1
   138    80    81    1
   139   106   105    1
   140    81    82    2
