@<TRIPOS>MOLECULE
tmp/1y0lD00.pdb
 108 104 0 0 0
SMALL
GASTEIGER

@<TRIPOS>ATOM
      1  N         10.7480  123.2090   -2.6110 N.3    33  TRP33      -0.1241
      2  CA        11.0810  124.6030   -2.3860 C.3    33  TRP33       0.1605
      3  C         12.3000  124.5030   -1.4790 C.2    33  TRP33       0.2264
      4  O         12.3670  123.6040   -0.6450 O.2    33  TRP33      -0.2867
      5  CB         9.9740  125.3150   -1.6140 C.3    33  TRP33       0.0550
      6  CG         8.7820  125.6990   -2.4140 C.ar   33  TRP33       0.0003
      7  CD1        7.9160  124.8640   -3.0580 C.ar   33  TRP33       0.0946
      8  CD2        8.3110  127.0310   -2.6520 C.ar   33  TRP33       0.0152
      9  NE1        6.9350  125.5920   -3.6820 N.ar   33  TRP33      -0.2442
     10  CE2        7.1520  126.9260   -3.4530 C.ar   33  TRP33       0.0810
     11  CE3        8.7580  128.3060   -2.2650 C.ar   33  TRP33       0.0012
     12  CZ2        6.4280  128.0470   -3.8790 C.ar   33  TRP33       0.0191
     13  CZ3        8.0400  129.4240   -2.6870 C.ar   33  TRP33       0.0001
     14  CH2        6.8830  129.2840   -3.4890 C.ar   33  TRP33       0.0015
     15  N         15.2000  126.7350    1.1020 N.3    35  THR35      -0.1218
     16  CA        15.2930  127.9380    1.9150 C.3    35  THR35       0.1862
     17  C         16.6590  128.1500    2.5670 C.2    35  THR35       0.2287
     18  O         17.4060  127.1960    2.8100 O.2    35  THR35      -0.2866
     19  CB        14.2300  127.8650    3.0490 C.3    35  THR35       0.1770
     20  OG1       12.9300  127.7020    2.4710 O.3    35  THR35      -0.2211
     21  CG2       14.2480  129.1120    3.9160 C.3    35  THR35       0.0375
     22  N         15.1480  134.1100    8.9730 N.3    47  TRP47      -0.1241
     23  CA        14.8010  133.6760    7.6250 C.3    47  TRP47       0.1605
     24  C         15.4440  134.6130    6.6050 C.2    47  TRP47       0.2264
     25  O         15.3160  135.8320    6.7170 O.2    47  TRP47      -0.2867
     26  CB        13.2830  133.7290    7.4520 C.3    47  TRP47       0.0550
     27  CG        12.7550  133.0370    6.2280 C.ar   47  TRP47       0.0003
     28  CD1       12.6650  131.6880    6.0210 C.ar   47  TRP47       0.0946
     29  CD2       12.1720  133.6570    5.0760 C.ar   47  TRP47       0.0152
     30  NE1       12.0550  131.4290    4.8190 N.ar   47  TRP47      -0.2442
     31  CE2       11.7400  132.6180    4.2160 C.ar   47  TRP47       0.0810
     32  CE3       11.9670  134.9920    4.6840 C.ar   47  TRP47       0.0012
     33  CZ2       11.1140  132.8710    2.9870 C.ar   47  TRP47       0.0191
     34  CZ3       11.3430  135.2430    3.4600 C.ar   47  TRP47       0.0001
     35  CH2       10.9230  134.1850    2.6270 C.ar   47  TRP47       0.0015
     36  N         13.5780  132.1160    0.1660 N.3    50  GLU50      -0.1245
     37  CA        13.2370  130.8210   -0.4030 C.3    50  GLU50       0.1567
     38  C         13.1570  130.9110   -1.9210 C.2    50  GLU50       0.2260
     39  O         13.1010  131.9960   -2.4910 O.2    50  GLU50      -0.2867
     40  CB        11.8830  130.3510    0.1310 C.3    50  GLU50       0.0388
     41  CG        10.7580  131.3460   -0.1600 C.3    50  GLU50       0.1160
     42  CD         9.4040  130.9080    0.3760 C.2    50  GLU50       0.3649
     43  OE1        9.3500  130.3100    1.4680 O.co2  50  GLU50      -0.2457
     44  OE2        8.3890  131.1850   -0.2920 O.co2  50  GLU50      -0.2457
     45  N         11.3700  134.6390   -2.7830 N.3    59  ASN59      -0.1240
     46  CA        11.0090  135.6190   -1.7700 C.3    59  ASN59       0.1653
     47  C         12.1700  135.8430   -0.8090 C.2    59  ASN59       0.2266
     48  O         12.8970  134.9150   -0.4550 O.2    59  ASN59      -0.2867
     49  CB         9.7610  135.1650   -1.0260 C.3    59  ASN59       0.1155
     50  CG         8.5960  134.9380   -1.9560 C.2    59  ASN59       0.2627
     51  OD1        8.3540  135.7370   -2.8570 O.2    59  ASN59      -0.2716
     52  ND2        7.8630  133.8470   -1.7480 N.am   59  ASN59      -0.0877
     53  N         11.9590  123.0350    2.3540 N.3    99  LEU99      -0.1245
     54  CA        10.6230  123.4570    2.7220 C.3    99  LEU99       0.1561
     55  C          9.5880  122.4930    2.1440 C.2    99  LEU99       0.2260
     56  O          9.4840  122.3410    0.9250 O.2    99  LEU99      -0.2867
     57  CB        10.3550  124.8630    2.1810 C.3    99  LEU99       0.0270
     58  CG         8.9180  125.4010    2.2530 C.3    99  LEU99       0.0019
     59  CD1        8.4260  125.4790    3.6930 C.3    99  LEU99       0.0001
     60  CD2        8.8920  126.7870    1.6160 C.3    99  LEU99       0.0001
     61  N          6.1560  121.9080    1.0790 N.3   101  PHE101     -0.1241
     62  CA         5.0840  122.7810    0.6200 C.3   101  PHE101      0.1605
     63  C          3.8450  121.9740    0.2090 C.2   101  PHE101      0.2264
     64  O          3.7620  121.4740   -0.9180 O.2   101  PHE101     -0.2867
     65  CB         5.6580  123.5720   -0.5620 C.3   101  PHE101      0.0534
     66  CG         4.9220  124.8280   -0.9010 C.ar  101  PHE101     -0.0203
     67  CD1        3.8010  124.7950   -1.7140 C.ar  101  PHE101     -0.0042
     68  CD2        5.4160  126.0610   -0.4900 C.ar  101  PHE101     -0.0042
     69  CE1        3.1900  125.9720   -2.1270 C.ar  101  PHE101     -0.0003
     70  CE2        4.8170  127.2430   -0.8920 C.ar  101  PHE101     -0.0003
     71  CZ         3.6990  127.2020   -1.7190 C.ar  101  PHE101     -0.0000
     72  N          0.0050  122.2130   -0.4950 N.3   103  VAL103     -0.1245
     73  CA        -1.1570  123.0650   -0.7570 C.3   103  VAL103      0.1561
     74  C         -2.4830  122.3840   -0.4790 C.2   103  VAL103      0.2260
     75  O         -3.5020  123.0440   -0.3990 O.2   103  VAL103     -0.2867
     76  CB        -1.1740  123.5660   -2.2190 C.3   103  VAL103      0.0252
     77  CG1        0.0870  124.3980   -2.5090 C.3   103  VAL103      0.0019
     78  CG2       -1.2900  122.3820   -3.1610 C.3   103  VAL103      0.0019
     79  N         -2.5920  122.6500    3.4890 N.3   106  HIS106     -0.1241
     80  CA        -2.1720  123.9700    3.9420 C.3   106  HIS106      0.1621
     81  C         -1.1490  123.7490    5.0430 C.2   106  HIS106      0.2264
     82  O         -1.2720  124.2470    6.1670 O.2   106  HIS106     -0.2867
     83  CB        -3.3960  124.7220    4.4350 C.3   106  HIS106      0.0745
     84  CG        -4.5450  124.6380    3.4830 C.ar  106  HIS106      0.0817
     85  ND1       -4.5070  125.2040    2.2280 N.ar  106  HIS106     -0.2268
     86  CD2       -5.7290  123.9850    3.5660 C.ar  106  HIS106      0.1154
     87  CE1       -5.6170  124.9040    1.5790 C.ar  106  HIS106      0.1986
     88  NE2       -6.3760  124.1640    2.3680 N.ar  106  HIS106     -0.2212
     89  N          3.0200  123.8650    5.7210 N.3   108  TYR108     -0.1241
     90  CA         4.3120  124.3600    5.2460 C.3   108  TYR108      0.1605
     91  C          5.3300  124.2550    6.3660 C.2   108  TYR108      0.2264
     92  O          5.2410  124.9680    7.3620 O.2   108  TYR108     -0.2867
     93  CB         4.1570  125.8110    4.7980 C.3   108  TYR108      0.0534
     94  CG         2.9960  125.9830    3.8570 C.ar  108  TYR108     -0.0201
     95  CD1        3.1060  125.6400    2.5060 C.ar  108  TYR108     -0.0009
     96  CD2        1.7520  126.3940    4.3340 C.ar  108  TYR108     -0.0009
     97  CE1        2.0030  125.6970    1.6570 C.ar  108  TYR108      0.0417
     98  CE2        0.6420  126.4490    3.4960 C.ar  108  TYR108      0.0417
     99  CZ         0.7740  126.1000    2.1620 C.ar  108  TYR108      0.1957
    100  OH        -0.3340  126.1510    1.3450 O.3   108  TYR108     -0.2866
    101  N          9.6290  123.6370    7.5510 N.3   110  LEU110     -0.1245
    102  CA        11.0430  123.5860    7.2540 C.3   110  LEU110      0.1561
    103  C         11.5060  122.2500    7.8570 C.2   110  LEU110      0.2260
    104  O         11.9260  122.1620    9.0000 O.2   110  LEU110     -0.2867
    105  CB        11.7520  124.7750    7.8890 C.3   110  LEU110      0.0270
    106  CG        11.3400  126.1370    7.3200 C.3   110  LEU110      0.0019
    107  CD1       12.0780  127.2180    8.0630 C.3   110  LEU110      0.0001
    108  CD2       11.6530  126.2290    5.8300 C.3   110  LEU110      0.0001
@<TRIPOS>BOND
     1    12    14   ar
     2    12    10   ar
     3     9    10   ar
     4     9     7   ar
     5    14    13   ar
     6    10     8   ar
     7    78    76    1
     8     7     6   ar
     9    51    50    2
    10    45    46    1
    11    13    11   ar
    12     8     6   ar
    13     8    11   ar
    14     1     2    1
    15    77    76    1
    16    39    38    2
    17     6     5    1
    18     2     5    1
    19     2     3    1
    20    76    73    1
    21    69    71   ar
    22    69    67   ar
    23    50    52   am
    24    50    49    1
    25    38    37    1
    26    46    49    1
    27    46    47    1
    28    71    70   ar
    29    67    66   ar
    30     3     4    2
    31    64    63    2
    32    66    65    1
    33    66    68   ar
    34    70    68   ar
    35    47    48    2
    36    73    72    1
    37    73    74    1
    38    65    62    1
    39    74    75    2
    40    37    40    1
    41    37    36    1
    42    44    42   ar
    43    41    40    1
    44    41    42    1
    45    63    62    1
    46    42    43   ar
    47    62    61    1
    48    56    55    2
    49    15    16    1
    50   100    99    1
    51    87    85   ar
    52    87    88   ar
    53    60    58    1
    54    97    99   ar
    55    97    95   ar
    56    16    17    1
    57    16    19    1
    58    55    54    1
    59    99    98   ar
    60    57    58    1
    61    57    54    1
    62    85    84   ar
    63    58    59    1
    64    53    54    1
    65    88    86   ar
    66    20    19    1
    67    95    94   ar
    68    17    18    2
    69    35    33   ar
    70    35    34   ar
    71    33    31   ar
    72    19    21    1
    73    34    32   ar
    74    84    86   ar
    75    84    83    1
    76    79    80    1
    77    98    96   ar
    78    94    96   ar
    79    94    93    1
    80    80    83    1
    81    80    81    1
    82    31    30   ar
    83    31    29   ar
    84    32    29   ar
    85    93    90    1
    86    30    28   ar
    87    81    82    2
    88    29    27   ar
    89    90    89    1
    90    90    91    1
    91   108   106    1
    92    28    27   ar
    93    27    26    1
    94    91    92    2
    95    24    25    2
    96    24    23    1
    97   102   101    1
    98   102   103    1
    99   102   105    1
   100   106   105    1
   101   106   107    1
   102    26    23    1
   103    23    22    1
   104   103   104    2
