@<TRIPOS>MOLECULE
tmp/1y0pA05.pdb
 105 97 0 0 0
SMALL
GASTEIGER

@<TRIPOS>ATOM
      1  N         32.0110   35.5160   69.2700 N.3   168  ALA168     -0.1231
      2  CA        32.1150   34.4290   70.2340 C.3   168  ALA168      0.1694
      3  C         33.0950   34.7180   71.3180 C.2   168  ALA168      0.2592
      4  O         34.1740   35.2670   71.0870 O.2   168  ALA168     -0.2718
      5  CB        32.4500   33.1120   69.5250 C.3   168  ALA168      0.0304
      6  N         32.7290   34.3850   72.5540 N.am  169  ALA169     -0.1966
      7  CA        33.5880   34.7450   73.6740 C.3   169  ALA169      0.1728
      8  C         34.2330   33.5110   74.3630 C.2   169  ALA169      0.2617
      9  O         35.4970   33.2460   74.3090 O.2   169  ALA169     -0.2715
     10  CB        32.8050   35.5780   74.6410 C.3   169  ALA169      0.0334
     11  N         33.3880   32.7240   74.9750 N.am  170  GLY170     -0.1940
     12  CA        33.7940   31.7650   75.9540 C.3   170  GLY170      0.2014
     13  C         34.6310   30.6070   75.4870 C.2   170  GLY170      0.2639
     14  O         35.4130   30.0970   76.3000 O.2   170  GLY170     -0.2714
     15  N         34.4670   30.1360   74.2550 N.am  171  GLY171     -0.1954
     16  CA        35.4250   29.1440   73.7420 C.3   171  GLY171      0.1869
     17  C         34.9290   28.1150   72.7540 C.2   171  GLY171      0.2309
     18  O         33.7380   28.1250   72.3800 O.2   171  GLY171     -0.2863
     19  N         32.6260   25.4740   80.9380 N.3   236  MET236     -0.1245
     20  CA        31.3010   25.9990   80.5870 C.3   236  MET236      0.1570
     21  C         30.2160   25.1950   81.2530 C.2   236  MET236      0.2261
     22  O         30.4630   24.1360   81.7800 O.2   236  MET236     -0.2867
     23  CB        31.0960   25.9350   79.0600 C.3   236  MET236      0.0387
     24  CG        31.9670   26.8730   78.2830 C.3   236  MET236      0.0595
     25  SD        31.3310   28.5590   78.3860 S.3   236  MET236     -0.1393
     26  CE        32.6060   29.3550   78.3880 C.3   236  MET236      0.0692
     27  N         20.4310   32.7860   75.7510 N.3   365  HIS365     -0.1241
     28  CA        21.6080   32.8940   76.5960 C.3   365  HIS365      0.1621
     29  C         21.1620   33.5040   77.9150 C.2   365  HIS365      0.2264
     30  O         20.4860   34.5160   77.8990 O.2   365  HIS365     -0.2867
     31  CB        22.6240   33.7930   75.9650 C.3   365  HIS365      0.0745
     32  CG        23.9910   33.7020   76.5630 C.ar  365  HIS365      0.0817
     33  ND1       24.2770   34.1670   77.8280 N.ar  365  HIS365     -0.2268
     34  CD2       25.1440   33.1930   76.0660 C.ar  365  HIS365      0.1154
     35  CE1       25.5650   33.9710   78.0750 C.ar  365  HIS365      0.1986
     36  NE2       26.1160   33.3960   77.0160 N.ar  365  HIS365     -0.2212
     37  N         25.8180   40.1810   75.0650 N.3   375  MET375     -0.1245
     38  CA        26.1180   38.9600   75.7760 C.3   375  MET375      0.1570
     39  C         27.2710   39.1670   76.7430 C.2   375  MET375      0.2261
     40  O         28.2750   39.7790   76.3930 O.2   375  MET375     -0.2867
     41  CB        26.5540   37.8830   74.7860 C.3   375  MET375      0.0387
     42  CG        26.8710   36.5410   75.4180 C.3   375  MET375      0.0595
     43  SD        27.3380   35.2410   74.2480 S.3   375  MET375     -0.1393
     44  CE        26.0880   35.4290   73.4250 C.3   375  MET375      0.0692
     45  N         29.8320   36.7360   78.7230 N.3   377  THR377     -0.1203
     46  CA        30.1690   35.3360   78.5190 C.3   377  THR377      0.1994
     47  C         29.9190   34.4460   79.7430 C.2   377  THR377      0.2617
     48  O         30.1180   34.8210   80.9100 O.2   377  THR377     -0.2717
     49  CB        31.6280   35.1860   78.0350 C.3   377  THR377      0.1784
     50  OG1       31.9050   33.7950   77.8400 O.3   377  THR377     -0.2211
     51  CG2       32.6710   35.7100   79.0190 C.3   377  THR377      0.0376
     52  N         29.4650   33.2330   79.4380 N.am  378  GLU378     -0.1979
     53  CA        29.3150   32.1640   80.4050 C.3   378  GLU378      0.1602
     54  C         30.6500   31.8530   81.0600 C.2   378  GLU378      0.2287
     55  O         30.6750   31.2930   82.1410 O.2   378  GLU378     -0.2864
     56  CB        28.7570   30.9210   79.7070 C.3   378  GLU378      0.0415
     57  CG        28.4320   29.7450   80.5820 C.3   378  GLU378      0.1163
     58  CD        27.3480   28.9060   79.9500 C.2   378  GLU378      0.3649
     59  OE1       26.2520   29.4720   79.7290 O.co2 378  GLU378     -0.2457
     60  OE2       27.5670   27.7180   79.6580 O.co2 378  GLU378     -0.2457
     61  N         21.6720   26.1120   79.8780 N.3   402  ARG402     -0.1245
     62  CA        21.1880   27.4740   79.6690 C.3   402  ARG402      0.1563
     63  C         19.6980   27.6120   79.7920 C.2   402  ARG402      0.2260
     64  O         19.2020   28.6600   80.1650 O.2   402  ARG402     -0.2867
     65  CB        21.6250   27.9530   78.3060 C.3   402  ARG402      0.0307
     66  CG        23.1070   28.1520   78.2630 C.3   402  ARG402      0.0489
     67  CD        23.6550   28.6230   76.9600 C.3   402  ARG402      0.2205
     68  NE        25.0030   29.1150   77.1350 N.pl3 402  ARG402     -0.0865
     69  CZ        25.7890   29.4590   76.1600 C.cat 402  ARG402      0.5346
     70  NH1       25.3880   29.3760   74.8920 N.pl3 402  ARG402      0.1354
     71  NH2       27.0040   29.9170   76.4410 N.pl3 402  ARG402      0.1354
     72  N         19.5310   33.8590   71.4550 N.3   504  HIS504     -0.1241
     73  CA        20.9710   33.6820   71.1490 C.3   504  HIS504      0.1621
     74  C         21.3260   32.7430   69.9970 C.2   504  HIS504      0.2264
     75  O         22.1680   33.0850   69.1920 O.2   504  HIS504     -0.2867
     76  CB        21.6300   33.1400   72.3870 C.3   504  HIS504      0.0745
     77  CG        23.1130   32.9610   72.3250 C.ar  504  HIS504      0.0817
     78  ND1       23.9650   34.0070   72.0800 N.ar  504  HIS504     -0.2268
     79  CD2       23.8840   31.8720   72.5660 C.ar  504  HIS504      0.1154
     80  CE1       25.2130   33.5710   72.1910 C.ar  504  HIS504      0.1986
     81  NE2       25.1870   32.2910   72.4820 N.ar  504  HIS504     -0.2212
     82  N         21.7680   23.6750   73.2700 N.3   544  ARG544     -0.1245
     83  CA        23.1680   23.6000   72.9040 C.3   544  ARG544      0.1563
     84  C         24.0420   23.8530   74.1330 C.2   544  ARG544      0.2260
     85  O         23.7550   24.7340   74.9270 O.2   544  ARG544     -0.2867
     86  CB        23.4940   24.6480   71.8420 C.3   544  ARG544      0.0307
     87  CG        24.9010   24.5330   71.3490 C.3   544  ARG544      0.0489
     88  CD        25.2240   25.4500   70.1890 C.3   544  ARG544      0.2205
     89  NE        25.0480   26.8700   70.4270 N.pl3 544  ARG544     -0.0865
     90  CZ        25.8810   27.6360   71.1260 C.cat 544  ARG544      0.5346
     91  NH1       26.8820   27.0940   71.7970 N.pl3 544  ARG544      0.1354
     92  NH2       25.6910   28.9320   71.1750 N.pl3 544  ARG544      0.1354
     93  N         27.2650   25.4700   75.8010 N.3   546  GLY546     -0.1210
     94  CA        28.2660   26.5150   75.6280 C.3   546  GLY546      0.1956
     95  C         29.5960   25.9400   75.1420 C.2   546  GLY546      0.2612
     96  O         30.0730   24.9260   75.6620 O.2   546  GLY546     -0.2717
     97  N         30.1350   26.5390   74.0860 N.am  547  GLY547     -0.1956
     98  CA        31.3700   26.0620   73.4710 C.3   547  GLY547      0.1869
     99  C         31.1690   25.1660   72.2760 C.2   547  GLY547      0.2309
    100  O         32.0990   24.9150   71.5150 O.2   547  GLY547     -0.2863
    101  N         29.0890   25.5040   69.6200 N.3   549  ALA549     -0.1245
    102  CA        28.8010   26.1300   68.3060 C.3   549  ALA549      0.1562
    103  C         30.0730   26.4160   67.5260 C.2   549  ALA549      0.2260
    104  O         30.1250   26.1080   66.3420 O.2   549  ALA549     -0.2867
    105  CB        27.9480   27.3420   68.4530 C.3   549  ALA549      0.0290
@<TRIPOS>BOND
     1   104   103    2
     2   103   102    1
     3   102   105    1
     4   102   101    1
     5    75    74    2
     6     1     2    1
     7     5     2    1
     8    74    73    1
     9    88    89    1
    10    88    87    1
    11     2     3    1
    12    89    90    2
    13     4     3    2
    14    90    92    1
    15    90    91    1
    16    73    72    1
    17    73    76    1
    18     3     6   am
    19    87    86    1
    20   100    99    2
    21    86    83    1
    22    78    80   ar
    23    78    77   ar
    24    80    81   ar
    25    99    98    1
    26    77    76    1
    27    77    79   ar
    28    18    17    2
    29    81    79   ar
    30     6     7    1
    31    17    16    1
    32    83    82    1
    33    83    84    1
    34    44    43    1
    35    98    97    1
    36     7     8    1
    37     7    10    1
    38    16    15    1
    39    97    95   am
    40    84    85    2
    41    43    42    1
    42    15    13   am
    43     9     8    2
    44     8    11   am
    45    41    42    1
    46    41    38    1
    47    70    69    1
    48    11    12    1
    49    37    38    1
    50    95    94    1
    51    95    96    2
    52    13    12    1
    53    13    14    2
    54    94    93    1
    55    27    28    1
    56    38    39    1
    57    31    32    1
    58    31    28    1
    59    34    32   ar
    60    34    36   ar
    61    69    71    1
    62    69    68    2
    63    40    39    2
    64    32    33   ar
    65    28    29    1
    66    67    68    1
    67    67    66    1
    68    36    35   ar
    69    33    35   ar
    70    50    49    1
    71    30    29    2
    72    49    46    1
    73    49    51    1
    74    66    65    1
    75    24    25    1
    76    24    23    1
    77    65    62    1
    78    25    26    1
    79    46    45    1
    80    46    47    1
    81    23    20    1
    82    52    47   am
    83    52    53    1
    84    60    58   ar
    85    62    63    1
    86    62    61    1
    87    56    53    1
    88    56    57    1
    89    59    58   ar
    90    47    48    2
    91    63    64    2
    92    58    57    1
    93    53    54    1
    94    20    19    1
    95    20    21    1
    96    54    55    2
    97    21    22    2
