@<TRIPOS>MOLECULE
tmp/1y0yA00.pdb
 139 132 0 0 0
SMALL
GASTEIGER

@<TRIPOS>ATOM
      1  N        -13.0580   20.9190   39.1210 N.3    63  HIS63      -0.1241
      2  CA       -13.8950   19.7330   38.9910 C.3    63  HIS63       0.1621
      3  C        -13.4330   18.5720   39.8490 C.2    63  HIS63       0.2264
      4  O        -12.2430   18.2610   39.9150 O.2    63  HIS63      -0.2867
      5  CB       -14.0800   19.3340   37.5040 C.3    63  HIS63       0.0745
      6  CG       -12.8780   18.7310   36.8390 C.ar   63  HIS63       0.0817
      7  ND1      -12.6190   17.3760   36.8580 N.ar   63  HIS63      -0.2268
      8  CD2      -11.9430   19.2760   36.0230 C.ar   63  HIS63       0.1154
      9  CE1      -11.5870   17.1120   36.0770 C.ar   63  HIS63       0.1986
     10  NE2      -11.1580   18.2480   35.5570 N.ar   63  HIS63      -0.2212
     11  N        -12.3570   10.9020   28.8550 N.3    87  GLY87      -0.1225
     12  CA       -11.3900   10.5380   27.8300 C.3    87  GLY87       0.1811
     13  C        -10.2910    9.5860   28.2610 C.2    87  GLY87       0.2280
     14  O         -9.1610   10.0020   28.5130 O.2    87  GLY87      -0.2866
     15  N         -5.5220   15.2820   37.7010 N.3   164  ASP164     -0.1239
     16  CA        -6.3560   16.0020   36.7490 C.3   164  ASP164      0.1674
     17  C         -7.5070   16.4660   37.5640 C.2   164  ASP164      0.2266
     18  O         -8.5450   15.8260   37.7110 O.2   164  ASP164     -0.2867
     19  CB        -6.8660   15.1430   35.5910 C.3   164  ASP164      0.1410
     20  CG        -7.6750   15.9640   34.5820 C.2   164  ASP164      0.3668
     21  OD1       -8.3900   16.9000   35.0170 O.co2 164  ASP164     -0.2456
     22  OD2       -7.6010   15.6790   33.3670 O.co2 164  ASP164     -0.2456
     23  N        -17.0940   17.3020   34.6760 N.3   194  GLU194     -0.1231
     24  CA       -16.3220   18.1480   33.7760 C.3   194  GLU194      0.1699
     25  C        -15.7530   17.2820   32.6570 C.2   194  GLU194      0.2592
     26  O        -15.7020   17.7040   31.5020 O.2   194  GLU194     -0.2718
     27  CB       -15.1670   18.8130   34.5240 C.3   194  GLU194      0.0402
     28  CG       -14.3030   19.7870   33.7020 C.3   194  GLU194      0.1161
     29  CD       -13.2360   19.1130   32.8410 C.2   194  GLU194      0.3649
     30  OE1      -12.9350   17.9160   33.0510 O.co2 194  GLU194     -0.2457
     31  OE2      -12.6790   19.7980   31.9570 O.co2 194  GLU194     -0.2457
     32  N        -15.3430   16.0650   33.0090 N.am  195  GLU195     -0.1966
     33  CA       -14.7280   15.1450   32.0490 C.3   195  GLU195      0.1733
     34  C        -15.6270   14.6720   30.9140 C.2   195  GLU195      0.2616
     35  O        -15.1360   14.1420   29.9120 O.2   195  GLU195     -0.2715
     36  CB       -14.1480   13.9290   32.7810 C.3   195  GLU195      0.0429
     37  CG       -13.0480   14.2670   33.8010 C.3   195  GLU195      0.1163
     38  CD       -11.7310   14.6930   33.1630 C.2   195  GLU195      0.3649
     39  OE1      -11.6830   14.8460   31.9260 O.co2 195  GLU195     -0.2457
     40  OE2      -10.7370   14.8780   33.9030 O.co2 195  GLU195     -0.2457
     41  N        -16.9340   14.8600   31.0550 N.am  196  VAL196     -0.1963
     42  CA       -17.8490   14.4390   30.0070 C.3   196  VAL196      0.1727
     43  C        -18.5000   15.6170   29.2820 C.2   196  VAL196      0.2617
     44  O        -19.4050   15.4240   28.4670 O.2   196  VAL196     -0.2715
     45  CB       -18.9420   13.4920   30.5580 C.3   196  VAL196      0.0290
     46  CG1      -18.3110   12.1620   30.9600 C.3   196  VAL196      0.0023
     47  CG2      -19.6480   14.1310   31.7550 C.3   196  VAL196      0.0023
     48  N        -18.0360   16.8330   29.5650 N.am  197  GLY197     -0.1940
     49  CA       -18.5990   17.9920   28.8900 C.3   197  GLY197      0.2014
     50  C        -18.7820   19.2920   29.6590 C.2   197  GLY197      0.2638
     51  O        -19.6190   20.1070   29.2740 O.2   197  GLY197     -0.2714
     52  N        -18.0130   19.5030   30.7260 N.am  198  LEU198     -0.1977
     53  CA       -18.1160   20.7380   31.5140 C.3   198  LEU198      0.1596
     54  C        -19.5510   20.9490   31.9970 C.2   198  LEU198      0.2287
     55  O        -20.0100   22.0880   32.1240 O.2   198  LEU198     -0.2864
     56  CB       -17.7120   21.9430   30.6560 C.3   198  LEU198      0.0297
     57  CG       -16.5580   21.7780   29.6630 C.3   198  LEU198      0.0022
     58  CD1      -16.3590   23.0830   28.9000 C.3   198  LEU198      0.0001
     59  CD2      -15.2890   21.3820   30.3990 C.3   198  LEU198      0.0001
     60  N         -7.5450   24.1320   36.9550 N.3   217  ASP217     -0.1225
     61  CA        -7.4730   22.7700   36.4360 C.3   217  ASP217      0.1805
     62  C         -6.0220   22.4890   36.0970 C.2   217  ASP217      0.2598
     63  O         -5.1540   23.3270   36.3220 O.2   217  ASP217     -0.2718
     64  CB        -8.3270   22.6410   35.1660 C.3   217  ASP217      0.1424
     65  CG        -8.7690   21.2060   34.8870 C.2   217  ASP217      0.3668
     66  OD1       -8.0890   20.2520   35.3240 O.co2 217  ASP217     -0.2456
     67  OD2       -9.8020   21.0300   34.2080 O.co2 217  ASP217     -0.2456
     68  N         -5.7500   21.3030   35.5730 N.am  218  VAL218     -0.1966
     69  CA        -4.3910   20.9750   35.1810 C.3   218  VAL218      0.1727
     70  C         -4.2550   21.3210   33.7120 C.2   218  VAL218      0.2617
     71  O         -5.2510   21.4280   32.9980 O.2   218  VAL218     -0.2715
     72  CB        -4.0790   19.4630   35.3220 C.3   218  VAL218      0.0290
     73  CG1       -4.0710   19.0580   36.7850 C.3   218  VAL218      0.0023
     74  CG2       -5.1040   18.6420   34.5410 C.3   218  VAL218      0.0023
     75  N         -3.0270   21.5330   33.2680 N.am  219  THR219     -0.1937
     76  CA        -2.8030   21.7830   31.8560 C.3   219  THR219      0.2028
     77  C         -1.6330   20.9140   31.4390 C.2   219  THR219      0.2642
     78  O         -0.9030   20.3830   32.2780 O.2   219  THR219     -0.2714
     79  CB        -2.5040   23.2580   31.5380 C.3   219  THR219      0.1808
     80  OG1       -2.4520   23.4180   30.1130 O.3   219  THR219     -0.2208
     81  CG2       -1.1850   23.6910   32.1390 C.3   219  THR219      0.0379
     82  N         -1.4620   20.7590   30.1370 N.am  220  ILE220     -0.1977
     83  CA        -0.3970   19.9270   29.6160 C.3   220  ILE220      0.1596
     84  C          1.0200   20.3740   29.8980 C.2   220  ILE220      0.2287
     85  O          1.3950   21.5140   29.6260 O.2   220  ILE220     -0.2864
     86  CB        -0.5200   19.7660   28.0850 C.3   220  ILE220      0.0276
     87  CG1       -1.8170   19.0480   27.7540 C.3   220  ILE220      0.0022
     88  CG2        0.6710   18.9760   27.5400 C.3   220  ILE220      0.0022
     89  CD1       -1.9270   17.7600   28.4730 C.3   220  ILE220      0.0001
     90  N         -3.8100   30.8450   31.8920 N.3   243  LYS243     -0.1245
     91  CA        -4.3690   30.4740   30.5990 C.3   243  LYS243      0.1561
     92  C         -4.7650   31.6610   29.7290 C.2   243  LYS243      0.2260
     93  O         -5.5190   32.5330   30.1580 O.2   243  LYS243     -0.2867
     94  CB        -5.5910   29.5700   30.7970 C.3   243  LYS243      0.0271
     95  CG        -6.1210   28.9340   29.5080 C.3   243  LYS243      0.0035
     96  CD        -7.4470   28.2080   29.7400 C.3   243  LYS243      0.0206
     97  CE        -7.3160   27.0140   30.6890 C.3   243  LYS243      0.1093
     98  NZ        -6.7040   25.8110   30.0540 N.3   243  LYS243     -0.1314
     99  N         -3.3810   26.3580   24.5610 N.3   275  LEU275     -0.1245
    100  CA        -3.6350   24.9880   24.1240 C.3   275  LEU275      0.1561
    101  C         -4.3920   24.9810   22.8020 C.2   275  LEU275      0.2260
    102  O         -5.3620   25.7190   22.6300 O.2   275  LEU275     -0.2867
    103  CB        -4.4600   24.2420   25.1680 C.3   275  LEU275      0.0270
    104  CG        -3.7950   23.9980   26.5160 C.3   275  LEU275      0.0019
    105  CD1       -4.8180   23.4190   27.4660 C.3   275  LEU275      0.0001
    106  CD2       -2.6120   23.0550   26.3500 C.3   275  LEU275      0.0001
    107  N         -8.0240   20.8250   24.0430 N.3   278  GLY278     -0.1210
    108  CA        -8.3670   20.8200   25.4550 C.3   278  GLY278      0.1956
    109  C         -9.5790   21.6590   25.8140 C.2   278  GLY278      0.2612
    110  O         -9.9630   22.5690   25.0790 O.2   278  GLY278     -0.2717
    111  N        -10.1840   21.3450   26.9550 N.am  279  GLY279     -0.1942
    112  CA       -11.3500   22.0780   27.4180 C.3   279  GLY279      0.2014
    113  C        -11.3380   22.1680   28.9320 C.2   279  GLY279      0.2639
    114  O        -10.8590   21.2520   29.6000 O.2   279  GLY279     -0.2714
    115  N        -11.8580   23.2670   29.4750 N.am  280  THR280     -0.1950
    116  CA       -11.8940   23.4790   30.9220 C.3   280  THR280      0.1897
    117  C        -13.2360   24.0740   31.3500 C.2   280  THR280      0.2313
    118  O        -13.9780   24.5960   30.5180 O.2   280  THR280     -0.2863
    119  CB       -10.7700   24.4400   31.3660 C.3   280  THR280      0.1794
    120  OG1      -10.9360   25.7060   30.7150 O.3   280  THR280     -0.2208
    121  CG2       -9.4080   23.8710   30.9960 C.3   280  THR280      0.0378
    122  N         -1.1530   13.3420   31.7350 N.3   304  ILE304     -0.1231
    123  CA        -2.5620   13.5420   32.0680 C.3   304  ILE304      0.1692
    124  C         -3.4640   12.4200   31.5380 C.2   304  ILE304      0.2592
    125  O         -3.2500   11.8920   30.4410 O.2   304  ILE304     -0.2718
    126  CB        -3.0500   14.9190   31.5530 C.3   304  ILE304      0.0266
    127  CG1       -2.3660   16.0330   32.3560 C.3   304  ILE304      0.0019
    128  CG2       -4.5560   15.0330   31.6930 C.3   304  ILE304      0.0020
    129  CD1       -2.6360   17.4400   31.8290 C.3   304  ILE304      0.0001
    130  N         -4.4680   12.0800   32.3450 N.am  305  HIS305     -0.1976
    131  CA        -5.4400   11.0140   32.0870 C.3   305  HIS305      0.1656
    132  C         -4.8060    9.6320   32.1390 C.2   305  HIS305      0.2291
    133  O         -4.8030    8.8730   31.1660 O.2   305  HIS305     -0.2864
    134  CB        -6.1840   11.2220   30.7660 C.3   305  HIS305      0.0771
    135  CG        -7.2770   12.2450   30.8530 C.ar  305  HIS305      0.0820
    136  ND1       -8.2490   12.3840   29.8880 N.ar  305  HIS305     -0.2267
    137  CD2       -7.5350   13.1910   31.7870 C.ar  305  HIS305      0.1154
    138  CE1       -9.0610   13.3730   30.2220 C.ar  305  HIS305      0.1986
    139  NE2       -8.6490   13.8800   31.3690 N.ar  305  HIS305     -0.2212
@<TRIPOS>BOND
     1   102   101    2
     2   101   100    1
     3   107   108    1
     4   100    99    1
     5   100   103    1
     6   110   109    2
     7   103   104    1
     8   108   109    1
     9   109   111   am
    10   106   104    1
    11   104   105    1
    12   111   112    1
    13   112   113    1
    14    88    86    1
    15    87    86    1
    16    87    89    1
    17    12    13    1
    18    12    11    1
    19    86    83    1
    20    13    14    2
    21    44    43    2
    22    49    48    1
    23    49    50    1
    24    58    57    1
    25   113   115   am
    26   113   114    2
    27    51    50    2
    28    43    48   am
    29    43    42    1
    30   115   116    1
    31    95    96    1
    32    95    94    1
    33    83    84    1
    34    83    82    1
    35    85    84    2
    36    50    52   am
    37    57    59    1
    38    57    56    1
    39    92    93    2
    40    92    91    1
    41    96    97    1
    42   136   138   ar
    43   136   135   ar
    44    35    34    2
    45    42    45    1
    46    42    41    1
    47    98    97    1
    48    80    79    1
    49    82    77   am
    50   138   139   ar
    51   125   124    2
    52   118   117    2
    53    45    46    1
    54    45    47    1
    55    91    94    1
    56    91    90    1
    57    56    53    1
    58   120   119    1
    59    52    53    1
    60   134   135    1
    61   134   131    1
    62   135   137   ar
    63    34    41   am
    64    34    33    1
    65   116   117    1
    66   116   119    1
    67   121   119    1
    68   133   132    2
    69   139   137   ar
    70    77    76    1
    71    77    78    2
    72    26    25    2
    73    53    54    1
    74   124   123    1
    75   124   130   am
    76    79    76    1
    77    79    81    1
    78   126   128    1
    79   126   123    1
    80   126   127    1
    81   122   123    1
    82   129   127    1
    83    76    75    1
    84    39    38   ar
    85    31    29   ar
    86    54    55    2
    87    33    36    1
    88    33    32    1
    89   131   132    1
    90   131   130    1
    91    25    32   am
    92    25    24    1
    93    36    37    1
    94    29    30   ar
    95    29    28    1
    96    71    70    2
    97    38    37    1
    98    38    40   ar
    99    75    70   am
   100    22    20   ar
   101    28    27    1
   102    70    69    1
   103    24    27    1
   104    24    23    1
   105    67    65   ar
   106    74    72    1
   107    20    21   ar
   108    20    19    1
   109    65    64    1
   110    65    66   ar
   111    64    61    1
   112    69    72    1
   113    69    68    1
   114    72    73    1
   115    10     8   ar
   116    10     9   ar
   117    68    62   am
   118    19    16    1
   119     8     6   ar
   120     9     7   ar
   121    62    63    2
   122    62    61    1
   123    61    60    1
   124    16    17    1
   125    16    15    1
   126     6     7   ar
   127     6     5    1
   128     5     2    1
   129    17    18    2
   130     2     1    1
   131     2     3    1
   132     3     4    2
