@<TRIPOS>MOLECULE
tmp/1y11A00.pdb
 108 98 0 0 0
SMALL
GASTEIGER

@<TRIPOS>ATOM
      1  N         41.1790   12.7590   58.2410 N.3    40  LEU40      -0.1245
      2  CA        42.1260   12.0580   59.0770 C.3    40  LEU40       0.1561
      3  C         41.4250   11.2290   60.1480 C.2    40  LEU40       0.2260
      4  O         42.0710   10.7460   61.0820 O.2    40  LEU40      -0.2867
      5  CB        43.1250   13.0550   59.6860 C.3    40  LEU40       0.0270
      6  CG        43.9870   13.8860   58.7180 C.3    40  LEU40       0.0019
      7  CD1       44.3750   15.2550   59.3000 C.3    40  LEU40       0.0001
      8  CD2       45.2250   13.1100   58.2820 C.3    40  LEU40       0.0001
      9  N         43.1390    8.2970   59.8910 N.3    43  THR43      -0.1203
     10  CA        44.4450    8.3150   60.5170 C.3    43  THR43       0.1994
     11  C         44.3660    8.4780   62.0430 C.2    43  THR43       0.2617
     12  O         45.3780    8.3560   62.7520 O.2    43  THR43      -0.2717
     13  CB        45.2860    9.4290   59.8650 C.3    43  THR43       0.1784
     14  OG1       45.4390    9.1390   58.4690 O.3    43  THR43      -0.2211
     15  CG2       46.6460    9.5330   60.4940 C.3    43  THR43       0.0376
     16  N         43.1610    8.7260   62.5540 N.am   44  ARG44      -0.1979
     17  CA        42.9930    8.9530   63.9830 C.3    44  ARG44       0.1597
     18  C         42.7690    7.6440   64.7300 C.2    44  ARG44       0.2287
     19  O         43.1230    7.5270   65.9010 O.2    44  ARG44      -0.2864
     20  CB        41.8440    9.9250   64.2270 C.3    44  ARG44       0.0334
     21  CG        41.9400   10.6830   65.5300 C.3    44  ARG44       0.0492
     22  CD        40.7020   11.5150   65.7720 C.3    44  ARG44       0.2205
     23  NE        39.4860   10.7270   65.5840 N.pl3  44  ARG44      -0.0865
     24  CZ        38.2520   11.1730   65.8140 C.cat  44  ARG44       0.5346
     25  NH1       38.0610   12.4120   66.2550 N.pl3  44  ARG44       0.1354
     26  NH2       37.2040   10.3780   65.6070 N.pl3  44  ARG44       0.1354
     27  N         46.1840    6.1720   66.2300 N.3    47  VAL47      -0.1245
     28  CA        46.8920    6.7140   67.3770 C.3    47  VAL47       0.1561
     29  C         46.1010    6.5650   68.6780 C.2    47  VAL47       0.2260
     30  O         46.4110    7.2300   69.6740 O.2    47  VAL47      -0.2867
     31  CB        47.2770    8.2090   67.1600 C.3    47  VAL47       0.0252
     32  CG1       48.3430    8.3290   66.0890 C.3    47  VAL47       0.0019
     33  CG2       46.0490    9.0590   66.8080 C.3    47  VAL47       0.0019
     34  N         54.3450   19.9720   65.3870 N.3   131  ALA131     -0.1231
     35  CA        55.4980   19.6740   64.5480 C.3   131  ALA131      0.1694
     36  C         55.4100   18.2780   63.9420 C.2   131  ALA131      0.2592
     37  O         56.0220   18.0090   62.9160 O.2   131  ALA131     -0.2718
     38  CB        56.7700   19.8240   65.3430 C.3   131  ALA131      0.0304
     39  N         54.6500   17.3910   64.5780 N.am  132  MET132     -0.1965
     40  CA        54.5000   16.0360   64.0700 C.3   132  MET132      0.1736
     41  C         53.3880   15.9740   63.0320 C.2   132  MET132      0.2616
     42  O         53.5900   15.4680   61.9310 O.2   132  MET132     -0.2715
     43  CB        54.2550   15.0430   65.2070 C.3   132  MET132      0.0427
     44  CG        55.3120   15.0870   66.3300 C.3   132  MET132      0.0599
     45  SD        55.5810   13.5150   67.2100 S.3   132  MET132     -0.1393
     46  CE        53.8900   13.1270   67.7990 C.3   132  MET132      0.0692
     47  N         52.2240   16.5100   63.3800 N.am  133  ARG133     -0.1977
     48  CA        51.0890   16.5680   62.4620 C.3   133  ARG133      0.1597
     49  C         51.4910   17.2000   61.1340 C.2   133  ARG133      0.2287
     50  O         51.0470   16.7620   60.0710 O.2   133  ARG133     -0.2864
     51  CB        49.9300   17.3400   63.1030 C.3   133  ARG133      0.0334
     52  CG        48.6760   17.4740   62.2540 C.3   133  ARG133      0.0492
     53  CD        48.6000   18.8680   61.6180 C.3   133  ARG133      0.2205
     54  NE        47.4040   19.0250   60.7790 N.pl3 133  ARG133     -0.0865
     55  CZ        47.1580   20.0820   59.9970 C.cat 133  ARG133      0.5346
     56  NH1       48.0320   21.0880   59.9360 N.pl3 133  ARG133      0.1354
     57  NH2       46.0330   20.1350   59.2730 N.pl3 133  ARG133      0.1354
     58  N         54.9430   17.6760   60.0950 N.3   135  THR135     -0.1203
     59  CA        56.0620   16.9320   59.4990 C.3   135  THR135      0.1994
     60  C         55.5610   15.8500   58.5530 C.2   135  THR135      0.2617
     61  O         56.1910   15.5650   57.5310 O.2   135  THR135     -0.2717
     62  CB        56.9700   16.2850   60.5750 C.3   135  THR135      0.1784
     63  OG1       57.9240   17.2510   61.0450 O.3   135  THR135     -0.2211
     64  CG2       57.7330   15.0610   60.0250 C.3   135  THR135      0.0376
     65  N         54.4250   15.2520   58.9110 N.am  136  ALA136     -0.1979
     66  CA        53.7900   14.2260   58.0990 C.3   136  ALA136      0.1597
     67  C         53.3540   14.7800   56.7560 C.2   136  ALA136      0.2287
     68  O         53.4510   14.0920   55.7440 O.2   136  ALA136     -0.2864
     69  CB        52.5970   13.6260   58.8290 C.3   136  ALA136      0.0319
     70  N         51.5890    7.2520   58.5620 N.3   158  VAL158     -0.1245
     71  CA        51.4480    7.2440   60.0190 C.3   158  VAL158      0.1561
     72  C         51.5620    5.8130   60.5530 C.2   158  VAL158      0.2260
     73  O         52.3480    5.5280   61.4660 O.2   158  VAL158     -0.2867
     74  CB        50.0940    7.8580   60.4400 C.3   158  VAL158      0.0252
     75  CG1       50.1460    8.3000   61.8720 C.3   158  VAL158      0.0019
     76  CG2       49.7630    9.0480   59.5640 C.3   158  VAL158      0.0019
     77  N         55.1400    5.0700   60.9890 N.3   161  ILE161     -0.1245
     78  CA        55.9480    5.8400   61.9230 C.3   161  ILE161      0.1561
     79  C         55.3290    5.8210   63.3330 C.2   161  ILE161      0.2260
     80  O         55.9070    6.3560   64.2740 O.2   161  ILE161     -0.2867
     81  CB        56.3100    7.2950   61.3930 C.3   161  ILE161      0.0252
     82  CG1       55.2170    8.3330   61.6940 C.3   161  ILE161      0.0019
     83  CG2       56.6590    7.2870   59.8960 C.3   161  ILE161      0.0019
     84  CD1       55.4000    9.1010   63.0060 C.3   161  ILE161      0.0001
     85  N         57.1410    5.9690   67.5980 N.3   165  LEU165     -0.1245
     86  CA        57.0020    7.0610   68.5670 C.3   165  LEU165      0.1561
     87  C         57.0330    6.6230   70.0370 C.2   165  LEU165      0.2260
     88  O         57.7140    7.2490   70.8560 O.2   165  LEU165     -0.2867
     89  CB        55.7200    7.8510   68.3080 C.3   165  LEU165      0.0270
     90  CG        55.5610    8.4960   66.9370 C.3   165  LEU165      0.0019
     91  CD1       54.1050    8.7740   66.6350 C.3   165  LEU165      0.0001
     92  CD2       56.3840    9.7610   66.8360 C.3   165  LEU165      0.0001
     93  N         60.4800    5.8990   70.9930 N.3   168  MET168     -0.1245
     94  CA        61.3180    7.0630   70.7090 C.3   168  MET168      0.1570
     95  C         61.2080    8.1310   71.8090 C.2   168  MET168      0.2261
     96  O         62.2220    8.6470   72.2820 O.2   168  MET168     -0.2867
     97  CB        61.0270    7.6220   69.3080 C.3   168  MET168      0.0387
     98  CG        61.7900    8.8890   68.9460 C.3   168  MET168      0.0595
     99  SD        61.0530   10.3940   69.6700 S.3   168  MET168     -0.1393
    100  CE        59.3920   10.4330   68.9560 C.3   168  MET168      0.0692
    101  N         63.6690    9.7830   74.8180 N.3   172  MET172     -0.1245
    102  CA        63.8120   11.2410   74.7920 C.3   172  MET172      0.1570
    103  C         63.6040   11.9120   76.1430 C.2   172  MET172      0.2261
    104  O         64.1830   12.9620   76.4180 O.2   172  MET172     -0.2867
    105  CB        62.8010   11.8240   73.8170 C.3   172  MET172      0.0387
    106  CG        63.1810   11.6860   72.3610 C.3   172  MET172      0.0595
    107  SD        63.9510   13.1870   71.6970 S.3   172  MET172     -0.1393
    108  CE        65.6480   13.0890   72.3140 C.3   172  MET172      0.0692
@<TRIPOS>BOND
     1    68    67    2
     2    67    66    1
     3    61    60    2
     4    66    69    1
     5    66    65    1
     6     1     2    1
     7     8     6    1
     8    14    13    1
     9    60    65   am
    10    60    59    1
    11    70    71    1
    12     6     7    1
    13     6     5    1
    14     2     5    1
    15     2     3    1
    16    57    55    1
    17    59    58    1
    18    59    62    1
    19    76    74    1
    20    13    15    1
    21    13    10    1
    22     9    10    1
    23    83    81    1
    24    56    55    1
    25    55    54    2
    26    71    74    1
    27    71    72    1
    28    64    62    1
    29    50    49    2
    30     3     4    2
    31    74    75    1
    32    10    11    1
    33    72    73    2
    34    62    63    1
    35    54    53    1
    36    77    78    1
    37    49    48    1
    38    81    82    1
    39    81    78    1
    40    53    52    1
    41    82    84    1
    42    78    79    1
    43    42    41    2
    44    11    16   am
    45    11    12    2
    46    52    51    1
    47    48    51    1
    48    48    47    1
    49    16    17    1
    50    37    36    2
    51    41    47   am
    52    41    40    1
    53    79    80    2
    54    36    35    1
    55    36    39   am
    56    17    20    1
    57    17    18    1
    58    40    39    1
    59    40    43    1
    60    20    21    1
    61    35    38    1
    62    35    34    1
    63    18    19    2
    64    43    44    1
    65    21    22    1
    66    23    22    1
    67    23    24    2
    68    26    24    1
    69    24    25    1
    70    32    31    1
    71    27    28    1
    72    44    45    1
    73    91    90    1
    74    33    31    1
    75    92    90    1
    76    90    89    1
    77    31    28    1
    78    45    46    1
    79    28    29    1
    80    85    86    1
    81    89    86    1
    82    86    87    1
    83    29    30    2
    84    98    97    1
    85    98    99    1
    86   100    99    1
    87    97    94    1
    88    87    88    2
    89    94    93    1
    90    94    95    1
    91   107   108    1
    92   107   106    1
    93    95    96    2
    94   106   105    1
    95   105   102    1
    96   102   101    1
    97   102   103    1
    98   103   104    2
