@<TRIPOS>MOLECULE
tmp/1y13B00.pdb
 93 88 0 0 0
SMALL
GASTEIGER

@<TRIPOS>ATOM
      1  N         95.0410   38.7380   27.0270 N.3    19  HIS19      -0.1241
      2  CA        94.6670   39.2240   25.7040 C.3    19  HIS19       0.1621
      3  C         93.3330   39.9610   25.7820 C.2    19  HIS19       0.2264
      4  O         92.6690   39.9660   26.8210 O.2    19  HIS19      -0.2867
      5  CB        94.6040   38.0500   24.7010 C.3    19  HIS19       0.0745
      6  CG        93.2600   37.3860   24.6090 C.ar   19  HIS19       0.0817
      7  ND1       92.5710   37.2770   23.4250 N.ar   19  HIS19      -0.2268
      8  CD2       92.4600   36.8440   25.5560 C.ar   19  HIS19       0.1154
      9  CE1       91.4190   36.6610   23.6380 C.ar   19  HIS19       0.1986
     10  NE2       91.3320   36.3800   24.9210 N.ar   19  HIS19      -0.2212
     11  N         90.0630   40.5100   22.6560 N.3    21  ILE21      -0.1245
     12  CA        89.6610   40.5520   21.2600 C.3    21  ILE21       0.1561
     13  C         89.1700   41.9590   20.8780 C.2    21  ILE21       0.2260
     14  O         88.4580   42.6070   21.6350 O.2    21  ILE21      -0.2867
     15  CB        88.6630   39.4350   20.9500 C.3    21  ILE21       0.0252
     16  CG1       89.4770   38.1560   20.7320 C.3    21  ILE21       0.0019
     17  CG2       87.9090   39.7160   19.6610 C.3    21  ILE21       0.0019
     18  CD1       88.7170   36.8900   20.9890 C.3    21  ILE21       0.0001
     19  N         86.6350   43.9730   23.8460 N.3    28  GLU28      -0.1245
     20  CA        86.2710   43.4440   25.1530 C.3    28  GLU28       0.1567
     21  C         87.3690   43.8020   26.1240 C.2    28  GLU28       0.2260
     22  O         88.4400   44.2440   25.7170 O.2    28  GLU28      -0.2867
     23  CB        86.1200   41.9480   25.0730 C.3    28  GLU28       0.0388
     24  CG        87.4310   41.2680   24.6990 C.3    28  GLU28       0.1160
     25  CD        87.2530   39.7860   24.5510 C.2    28  GLU28       0.3649
     26  OE1       86.1230   39.3100   24.7710 O.co2  28  GLU28      -0.2457
     27  OE2       88.2300   39.0950   24.2180 O.co2  28  GLU28      -0.2457
     28  N         91.5930   40.2350   29.7510 N.3    31  HIS31      -0.1241
     29  CA        91.4150   39.0390   30.5590 C.3    31  HIS31       0.1621
     30  C         92.5230   38.0720   30.1510 C.2    31  HIS31       0.2264
     31  O         93.5180   38.5030   29.6290 O.2    31  HIS31      -0.2867
     32  CB        90.0000   38.4420   30.3990 C.3    31  HIS31       0.0745
     33  CG        89.7040   37.9840   29.0070 C.ar   31  HIS31       0.0817
     34  ND1       89.4120   38.8580   27.9840 N.ar   31  HIS31      -0.2268
     35  CD2       89.6670   36.7450   28.4620 C.ar   31  HIS31       0.1154
     36  CE1       89.2150   38.1810   26.8670 C.ar   31  HIS31       0.1986
     37  NE2       89.3740   36.8960   27.1260 N.ar   31  HIS31      -0.2212
     38  N         93.8290   33.5130   29.7090 N.3    33  HIS33      -0.1241
     39  CA        93.5160   32.1100   29.5260 C.3    33  HIS33       0.1621
     40  C         94.7350   31.2330   29.7640 C.2    33  HIS33       0.2264
     41  O         95.8610   31.6620   29.5390 O.2    33  HIS33      -0.2867
     42  CB        93.0660   31.8640   28.0770 C.3    33  HIS33       0.0745
     43  CG        91.7740   32.5250   27.7260 C.ar   33  HIS33       0.0817
     44  ND1       90.5950   32.2100   28.3520 N.ar   33  HIS33      -0.2268
     45  CD2       91.4830   33.5150   26.8450 C.ar   33  HIS33       0.1154
     46  CE1       89.6290   32.9740   27.8760 C.ar   33  HIS33       0.1986
     47  NE2       90.1400   33.7610   26.9530 N.ar   33  HIS33      -0.2212
     48  N         93.7480   38.2850   18.4120 N.3   115  SER115     -0.1202
     49  CA        94.2370   37.2790   19.3380 C.3   115  SER115      0.2020
     50  C         93.1670   36.2300   19.6330 C.2   115  SER115      0.2619
     51  O         92.9690   35.8140   20.7680 O.2   115  SER115     -0.2717
     52  CB        94.7880   37.9070   20.6050 C.3   115  SER115      0.2103
     53  OG        93.8210   38.7670   21.1810 O.3   115  SER115     -0.2182
     54  N         92.4990   35.7790   18.5830 N.am  116  SER116     -0.1937
     55  CA        91.5010   34.7440   18.7080 C.3   116  SER116      0.2055
     56  C         92.2380   33.4320   18.7310 C.2   116  SER116      0.2644
     57  O         93.3580   33.3300   18.2430 O.2   116  SER116     -0.2714
     58  CB        90.5510   34.7940   17.5190 C.3   116  SER116      0.2130
     59  OG        91.2580   34.3690   16.3590 O.3   116  SER116     -0.2179
     60  N         91.5910   32.4240   19.2680 N.am  117  THR117     -0.1936
     61  CA        92.1510   31.0910   19.4120 C.3   117  THR117      0.2028
     62  C         92.4400   30.4510   18.0390 C.2   117  THR117      0.2642
     63  O         93.4190   29.7430   17.8870 O.2   117  THR117     -0.2714
     64  CB        91.1970   30.2540   20.3270 C.3   117  THR117      0.1808
     65  OG1       91.0250   30.9790   21.5660 O.3   117  THR117     -0.2208
     66  CG2       91.7740   28.9190   20.6810 C.3   117  THR117      0.0379
     67  N         91.5900   30.7260   17.0500 N.am  118  GLU118     -0.1976
     68  CA        91.8080   30.2780   15.6690 C.3   118  GLU118      0.1602
     69  C         93.1090   30.8580   15.0980 C.2   118  GLU118      0.2287
     70  O         93.8890   30.1420   14.4870 O.2   118  GLU118     -0.2864
     71  CB        90.6500   30.6960   14.7350 C.3   118  GLU118      0.0415
     72  CG        89.3050   30.0150   14.9890 C.3   118  GLU118      0.1163
     73  CD        88.4000   30.7470   15.9960 C.2   118  GLU118      0.3649
     74  OE1       88.8860   31.2240   17.0430 O.co2 118  GLU118     -0.2457
     75  OE2       87.1670   30.8140   15.7430 O.co2 118  GLU118     -0.2457
     76  N         91.2290   27.5000   24.4660 N.3   150  GLU150     -0.1245
     77  CA        91.3900   28.6710   25.3470 C.3   150  GLU150      0.1567
     78  C         90.8550   28.3820   26.7330 C.2   150  GLU150      0.2260
     79  O         91.1580   29.0980   27.6770 O.2   150  GLU150     -0.2867
     80  CB        90.7550   29.9460   24.7760 C.3   150  GLU150      0.0388
     81  CG        89.2710   29.9090   24.5880 C.3   150  GLU150      0.1160
     82  CD        88.6360   31.3110   24.4320 C.2   150  GLU150      0.3649
     83  OE1       89.2280   32.2370   23.7940 O.co2 150  GLU150     -0.2457
     84  OE2       87.5020   31.4850   24.9510 O.co2 150  GLU150     -0.2457
     85  N         86.1890   25.1480   25.2340 N.3   154  GLN154     -0.1245
     86  CA        86.2130   25.7300   23.8800 C.3   154  GLN154      0.1566
     87  C         87.5590   25.6570   23.1780 C.2   154  GLN154      0.2260
     88  O         88.5870   26.0290   23.7320 O.2   154  GLN154     -0.2867
     89  CB        85.6780   27.1710   23.8330 C.3   154  GLN154      0.0367
     90  CG        86.0130   28.1110   24.9600 C.3   154  GLN154      0.0905
     91  CD        84.9110   29.1470   25.1480 C.2   154  GLN154      0.2608
     92  OE1       83.7620   28.7880   25.3040 O.2   154  GLN154     -0.2717
     93  NE2       85.2590   30.4320   25.1290 N.am  154  GLN154     -0.0878
@<TRIPOS>BOND
     1    70    69    2
     2    71    72    1
     3    71    68    1
     4    72    73    1
     5    69    68    1
     6    68    67    1
     7    75    73   ar
     8    73    74   ar
     9    59    58    1
    10    67    62   am
    11    58    55    1
    12    63    62    2
    13    62    61    1
    14    57    56    2
    15    48    49    1
    16    54    55    1
    17    54    50   am
    18    55    56    1
    19    56    60   am
    20    60    61    1
    21    49    50    1
    22    49    52    1
    23    61    64    1
    24    50    51    2
    25    17    15    1
    26    64    66    1
    27    64    65    1
    28    52    53    1
    29    16    15    1
    30    16    18    1
    31    13    12    1
    32    13    14    2
    33    15    12    1
    34    12    11    1
    35    87    88    2
    36    87    86    1
    37     7     9   ar
    38     7     6   ar
    39     9    10   ar
    40    83    82   ar
    41    89    86    1
    42    89    90    1
    43    19    20    1
    44    86    85    1
    45    27    25   ar
    46    82    81    1
    47    82    84   ar
    48    76    77    1
    49    25    24    1
    50    25    26   ar
    51    81    80    1
    52     6     5    1
    53     6     8   ar
    54    24    23    1
    55     5     2    1
    56    80    77    1
    57    10     8   ar
    58    90    91    1
    59    23    20    1
    60    93    91   am
    61    91    92    2
    62    20    21    1
    63    77    78    1
    64     2     3    1
    65     2     1    1
    66    22    21    2
    67     3     4    2
    68    78    79    2
    69    45    47   ar
    70    45    43   ar
    71    36    37   ar
    72    36    34   ar
    73    47    46   ar
    74    37    35   ar
    75    43    42    1
    76    43    44   ar
    77    46    44   ar
    78    34    33   ar
    79    42    39    1
    80    35    33   ar
    81    33    32    1
    82    39    38    1
    83    39    40    1
    84    41    40    2
    85    31    30    2
    86    28    29    1
    87    30    29    1
    88    32    29    1
