@<TRIPOS>MOLECULE
tmp/1y13A00.pdb
 98 93 0 0 0
SMALL
GASTEIGER

@<TRIPOS>ATOM
      1  N         64.3980    6.8980   30.1380 N.3    19  HIS19      -0.1241
      2  CA        64.0080    6.3090   28.8580 C.3    19  HIS19       0.1621
      3  C         64.0760    4.7850   28.9580 C.2    19  HIS19       0.2264
      4  O         64.5910    4.2390   29.9430 O.2    19  HIS19      -0.2867
      5  CB        64.9350    6.8150   27.7190 C.3    19  HIS19       0.0745
      6  CG        66.1770    5.9910   27.5310 C.ar   19  HIS19       0.0817
      7  ND1       66.4810    5.3610   26.3400 N.ar   19  HIS19      -0.2268
      8  CD2       67.1960    5.7020   28.3770 C.ar   19  HIS19       0.1154
      9  CE1       67.6360    4.7270   26.4570 C.ar   19  HIS19       0.1986
     10  NE2       68.0940    4.9190   27.6830 N.ar   19  HIS19      -0.2212
     11  N         64.8560    1.6370   25.7960 N.3    21  ILE21      -0.1245
     12  CA        64.8510    1.2010   24.4080 C.3    21  ILE21       0.1561
     13  C         63.8660    0.0610   24.1450 C.2    21  ILE21       0.2260
     14  O         63.7250   -0.8570   24.9360 O.2    21  ILE21      -0.2867
     15  CB        66.2810    0.9210   23.9310 C.3    21  ILE21       0.0252
     16  CG1       66.9000    2.2590   23.5020 C.3    21  ILE21       0.0019
     17  CG2       66.2760   -0.0770   22.7850 C.3    21  ILE21       0.0019
     18  CD1       68.3840    2.3320   23.6650 C.3    21  ILE21       0.0001
     19  N         62.4620   -6.8590   21.5360 N.3    26  PHE26      -0.1241
     20  CA        63.3030   -6.4320   22.6690 C.3    26  PHE26       0.1605
     21  C         62.7420   -5.2060   23.3700 C.2    26  PHE26       0.2264
     22  O         62.3820   -4.2180   22.7220 O.2    26  PHE26      -0.2867
     23  CB        64.7310   -6.1360   22.2080 C.3    26  PHE26       0.0534
     24  CG        65.6480   -5.5780   23.2980 C.ar   26  PHE26      -0.0203
     25  CD1       65.7310   -4.2050   23.5330 C.ar   26  PHE26      -0.0042
     26  CD2       66.4570   -6.4270   24.0530 C.ar   26  PHE26      -0.0042
     27  CE1       66.5990   -3.6870   24.5150 C.ar   26  PHE26      -0.0003
     28  CE2       67.3180   -5.9220   25.0310 C.ar   26  PHE26      -0.0003
     29  CZ        67.3910   -4.5460   25.2590 C.ar   26  PHE26      -0.0000
     30  N         63.7280   -3.0890   27.2060 N.3    28  GLU28      -0.1245
     31  CA        64.5000   -3.0760   28.4550 C.3    28  GLU28       0.1567
     32  C         63.7250   -2.2980   29.5220 C.2    28  GLU28       0.2260
     33  O         62.7740   -1.5760   29.2060 O.2    28  GLU28      -0.2867
     34  CB        65.9060   -2.4730   28.2600 C.3    28  GLU28       0.0388
     35  CG        65.8850   -0.9720   27.9960 C.3    28  GLU28       0.1160
     36  CD        67.2180   -0.3890   27.5120 C.2    28  GLU28       0.3649
     37  OE1       68.2410   -1.1110   27.4580 O.co2  28  GLU28      -0.2457
     38  OE2       67.2320    0.8150   27.1810 O.co2  28  GLU28      -0.2457
     39  N         65.1450    3.2320   32.8810 N.3    31  HIS31      -0.1241
     40  CA        66.3280    3.7200   33.5740 C.3    31  HIS31       0.1621
     41  C         66.5890    5.1530   33.0840 C.2    31  HIS31       0.2264
     42  O         65.6840    5.7900   32.5700 O.2    31  HIS31      -0.2867
     43  CB        67.5350    2.8040   33.3460 C.3    31  HIS31       0.0745
     44  CG        67.9180    2.6830   31.9100 C.ar   31  HIS31       0.0817
     45  ND1       67.1210    2.0430   30.9850 N.ar   31  HIS31      -0.2268
     46  CD2       68.9860    3.1590   31.2280 C.ar   31  HIS31       0.1154
     47  CE1       67.6890    2.1210   29.7940 C.ar   31  HIS31       0.1986
     48  NE2       68.8190    2.7960   29.9140 N.ar   31  HIS31      -0.2212
     49  N         69.8430    8.4980   32.1520 N.3    33  HIS33      -0.1241
     50  CA        71.1920    8.9280   31.8240 C.3    33  HIS33       0.1621
     51  C         71.3640   10.4310   31.9950 C.2    33  HIS33       0.2264
     52  O         70.4110   11.1890   31.8740 O.2    33  HIS33      -0.2867
     53  CB        71.5270    8.5860   30.3650 C.3    33  HIS33       0.0745
     54  CG        71.4790    7.1300   30.0740 C.ar   33  HIS33       0.0817
     55  ND1       72.3910    6.2460   30.6020 N.ar   33  HIS33      -0.2268
     56  CD2       70.6210    6.3940   29.3270 C.ar   33  HIS33       0.1154
     57  CE1       72.0980    5.0240   30.1950 C.ar   33  HIS33       0.1986
     58  NE2       71.0230    5.0870   29.4330 N.ar   33  HIS33      -0.2212
     59  N         67.3050    5.9110   21.2720 N.3   116  SER116     -0.1202
     60  CA        68.7150    5.5890   21.2590 C.3   116  SER116      0.2020
     61  C         69.4810    6.8940   21.1730 C.2   116  SER116      0.2619
     62  O         68.9620    7.9170   20.7230 O.2   116  SER116     -0.2717
     63  CB        69.0550    4.6940   20.0630 C.3   116  SER116      0.2103
     64  OG        68.9400    5.4050   18.8270 O.3   116  SER116     -0.2182
     65  N         70.7320    6.8390   21.5880 N.am  117  THR117     -0.1938
     66  CA        71.6570    7.9550   21.5720 C.3   117  THR117      0.2028
     67  C         71.8690    8.4880   20.1470 C.2   117  THR117      0.2642
     68  O         71.8710    9.7060   19.9450 O.2   117  THR117     -0.2714
     69  CB        72.9990    7.4950   22.2520 C.3   117  THR117      0.1808
     70  OG1       72.6760    6.8240   23.4790 O.3   117  THR117     -0.2208
     71  CG2       73.8530    8.6560   22.6110 C.3   117  THR117      0.0379
     72  N         72.0280    7.5770   19.1770 N.am  118  GLU118     -0.1976
     73  CA        72.0500    7.9140   17.7460 C.3   118  GLU118      0.1602
     74  C         70.8360    8.7330   17.3070 C.2   118  GLU118      0.2287
     75  O         70.9900    9.7750   16.7110 O.2   118  GLU118     -0.2864
     76  CB        72.1280    6.6480   16.8670 C.3   118  GLU118      0.0415
     77  CG        73.4360    5.8600   16.9610 C.3   118  GLU118      0.1163
     78  CD        73.3500    4.7150   17.9630 C.2   118  GLU118      0.3649
     79  OE1       72.7420    4.9160   19.0370 O.co2 118  GLU118     -0.2457
     80  OE2       73.8670    3.6110   17.6650 O.co2 118  GLU118     -0.2457
     81  N         75.7300    9.0370   26.1520 N.3   150  GLU150     -0.1245
     82  CA        74.7390    8.5740   27.1300 C.3   150  GLU150      0.1567
     83  C         75.3690    8.3470   28.4860 C.2   150  GLU150      0.2260
     84  O         74.6880    8.3300   29.5000 O.2   150  GLU150     -0.2867
     85  CB        73.9690    7.3370   26.6450 C.3   150  GLU150      0.0388
     86  CG        74.6890    6.0080   26.7310 C.3   150  GLU150      0.1160
     87  CD        73.7240    4.8080   26.6650 C.2   150  GLU150      0.3649
     88  OE1       72.5970    4.9300   26.0970 O.co2 150  GLU150     -0.2457
     89  OE2       74.0920    3.7330   27.2050 O.co2 150  GLU150     -0.2457
     90  N         80.3010    5.8760   26.5260 N.3   154  GLN154     -0.1245
     91  CA        79.6680    5.5560   25.2380 C.3   154  GLN154      0.1566
     92  C         78.9870    6.7460   24.5720 C.2   154  GLN154      0.2260
     93  O         78.1840    7.4380   25.1800 O.2   154  GLN154     -0.2867
     94  CB        78.7230    4.3610   25.3600 C.3   154  GLN154      0.0367
     95  CG        77.9030    4.3060   26.6500 C.3   154  GLN154      0.0905
     96  CD        77.4020    2.8980   26.9790 C.2   154  GLN154      0.2608
     97  OE1       78.1660    1.9370   26.9860 O.2   154  GLN154     -0.2717
     98  NE2       76.1130    2.7820   27.2570 N.am  154  GLN154     -0.0878
@<TRIPOS>BOND
     1    75    74    2
     2    76    77    1
     3    76    73    1
     4    77    78    1
     5    74    73    1
     6    80    78   ar
     7    73    72    1
     8    78    79   ar
     9    64    63    1
    10    72    67   am
    11    68    67    2
    12    63    60    1
    13    67    66    1
    14    62    61    2
    15    61    60    1
    16    61    65   am
    17    60    59    1
    18    19    20    1
    19    66    65    1
    20    66    69    1
    21    23    20    1
    22    23    24    1
    23    69    71    1
    24    69    70    1
    25    20    21    1
    26    22    21    2
    27    17    15    1
    28    24    25   ar
    29    24    26   ar
    30    16    18    1
    31    16    15    1
    32    25    27   ar
    33    15    12    1
    34    26    28   ar
    35    13    12    1
    36    13    14    2
    37    12    11    1
    38    27    29   ar
    39    92    93    2
    40    92    91    1
    41    28    29   ar
    42    91    94    1
    43    91    90    1
    44    94    95    1
    45    88    87   ar
    46    81    82    1
    47     7     9   ar
    48     7     6   ar
    49     9    10   ar
    50    85    86    1
    51    85    82    1
    52    95    96    1
    53    87    86    1
    54    87    89   ar
    55    96    97    2
    56    96    98   am
    57    82    83    1
    58    38    36   ar
    59    30    31    1
    60    37    36   ar
    61    36    35    1
    62     6     5    1
    63     6     8   ar
    64    10     8   ar
    65     5     2    1
    66    35    34    1
    67    34    31    1
    68    31    32    1
    69    83    84    2
    70     2     3    1
    71     2     1    1
    72     3     4    2
    73    33    32    2
    74    56    58   ar
    75    56    54   ar
    76    58    57   ar
    77    47    48   ar
    78    47    45   ar
    79    48    46   ar
    80    54    53    1
    81    54    55   ar
    82    57    55   ar
    83    53    50    1
    84    45    44   ar
    85    46    44   ar
    86    50    51    1
    87    50    49    1
    88    52    51    2
    89    44    43    1
    90    42    41    2
    91    39    40    1
    92    41    40    1
    93    43    40    1
