@<TRIPOS>MOLECULE
tmp/1y19H00.pdb
 157 155 0 0 0
SMALL
GASTEIGER

@<TRIPOS>ATOM
      1  N         39.6550   28.7560  -15.3720 N.3   145  LEU145     -0.1231
      2  CA        38.7350   29.5380  -16.1990 C.3   145  LEU145      0.1693
      3  C         38.6150   28.9890  -17.6160 C.2   145  LEU145      0.2593
      4  O         37.5930   29.1710  -18.2730 O.2   145  LEU145     -0.2718
      5  CB        39.1880   30.9980  -16.2750 C.3   145  LEU145      0.0284
      6  CG        39.2980   31.8080  -14.9800 C.3   145  LEU145      0.0019
      7  CD1       39.7260   33.2290  -15.3090 C.3   145  LEU145      0.0001
      8  CD2       37.9620   31.8160  -14.2520 C.3   145  LEU145      0.0001
      9  N         39.6640   28.3190  -18.0820 N.am  146  THR146     -0.1939
     10  CA        39.6850   27.7500  -19.4260 C.3   146  THR146      0.2028
     11  C         38.8100   26.5000  -19.5670 C.2   146  THR146      0.2642
     12  O         38.5690   26.0250  -20.6780 O.2   146  THR146     -0.2714
     13  CB        41.1430   27.4170  -19.8670 C.3   146  THR146      0.1808
     14  OG1       41.7400   26.5070  -18.9350 O.3   146  THR146     -0.2208
     15  CG2       41.9820   28.6830  -19.9190 C.3   146  THR146      0.0379
     16  N         38.3300   25.9700  -18.4460 N.am  147  ASN147     -0.1957
     17  CA        37.4770   24.7840  -18.4850 C.3   147  ASN147      0.1819
     18  C         36.0050   25.1670  -18.4640 C.2   147  ASN147      0.2621
     19  O         35.1280   24.3010  -18.4800 O.2   147  ASN147     -0.2715
     20  CB        37.7730   23.8550  -17.3050 C.3   147  ASN147      0.1195
     21  CG        39.1350   23.1890  -17.4100 C.2   147  ASN147      0.2630
     22  OD1       39.4920   22.6340  -18.4510 O.2   147  ASN147     -0.2716
     23  ND2       39.8980   23.2300  -16.3230 N.am  147  ASN147     -0.0877
     24  N         35.7420   26.4690  -18.4320 N.am  148  ILE148     -0.1963
     25  CA        34.3800   26.9810  -18.4100 C.3   148  ILE148      0.1727
     26  C         33.8030   27.0600  -19.8220 C.2   148  ILE148      0.2616
     27  O         34.3730   27.7130  -20.7010 O.2   148  ILE148     -0.2715
     28  CB        34.3330   28.3870  -17.7610 C.3   148  ILE148      0.0290
     29  CG1       34.8190   28.3040  -16.3130 C.3   148  ILE148      0.0022
     30  CG2       32.9160   28.9400  -17.7970 C.3   148  ILE148      0.0023
     31  CD1       34.7990   29.6210  -15.5800 C.3   148  ILE148      0.0001
     32  N         32.6790   26.3800  -20.0360 N.am  149  LYS149     -0.1963
     33  CA        32.0100   26.3870  -21.3320 C.3   149  LYS149      0.1728
     34  C         31.0290   27.5560  -21.3910 C.2   149  LYS149      0.2616
     35  O         31.0160   28.3260  -22.3530 O.2   149  LYS149     -0.2715
     36  CB        31.2600   25.0720  -21.5570 C.3   149  LYS149      0.0311
     37  CG        30.4770   25.0320  -22.8620 C.3   149  LYS149      0.0038
     38  CD        29.7980   23.6870  -23.0800 C.3   149  LYS149      0.0206
     39  CE        28.9560   23.6950  -24.3520 C.3   149  LYS149      0.1093
     40  NZ        28.2920   22.3790  -24.5920 N.3   149  LYS149     -0.1314
     41  N         30.2120   27.6850  -20.3510 N.am  150  ARG150     -0.1963
     42  CA        29.2340   28.7610  -20.2740 C.3   150  ARG150      0.1729
     43  C         28.8170   28.9750  -18.8320 C.2   150  ARG150      0.2616
     44  O         29.1620   28.1850  -17.9560 O.2   150  ARG150     -0.2715
     45  CB        28.0060   28.4180  -21.1110 C.3   150  ARG150      0.0348
     46  CG        27.4320   27.0620  -20.7790 C.3   150  ARG150      0.0492
     47  CD        26.1740   26.7690  -21.5670 C.3   150  ARG150      0.2205
     48  NE        25.6870   25.4240  -21.2820 N.pl3 150  ARG150     -0.0865
     49  CZ        24.5580   24.9160  -21.7600 C.cat 150  ARG150      0.5346
     50  NH1       23.7840   25.6430  -22.5540 N.pl3 150  ARG150      0.1354
     51  NH2       24.2070   23.6780  -21.4450 N.pl3 150  ARG150      0.1354
     52  N         28.0690   30.0470  -18.5950 N.am  151  TRP151     -0.1960
     53  CA        27.5900   30.3730  -17.2580 C.3   151  TRP151      0.1771
     54  C         26.2610   31.1300  -17.3420 C.2   151  TRP151      0.2620
     55  O         26.0500   31.9350  -18.2530 O.2   151  TRP151     -0.2715
     56  CB        28.6410   31.2110  -16.5190 C.3   151  TRP151      0.0590
     57  CG        28.9640   32.5150  -17.1910 C.ar  151  TRP151      0.0006
     58  CD1       28.2740   33.6880  -17.0820 C.ar  151  TRP151      0.0946
     59  CD2       30.0390   32.7650  -18.1070 C.ar  151  TRP151      0.0152
     60  NE1       28.8500   34.6530  -17.8740 N.ar  151  TRP151     -0.2442
     61  CE2       29.9340   34.1140  -18.5150 C.ar  151  TRP151      0.0810
     62  CE3       31.0790   31.9790  -18.6240 C.ar  151  TRP151      0.0012
     63  CZ2       30.8320   34.6980  -19.4200 C.ar  151  TRP151      0.0191
     64  CZ3       31.9730   32.5600  -19.5250 C.ar  151  TRP151      0.0001
     65  CH2       31.8410   33.9070  -19.9120 C.ar  151  TRP151      0.0015
     66  N         25.3620   30.8510  -16.4010 N.am  152  ALA152     -0.1963
     67  CA        24.0570   31.5070  -16.3650 C.3   152  ALA152      0.1728
     68  C         23.9040   32.2520  -15.0440 C.2   152  ALA152      0.2616
     69  O         24.1830   31.6980  -13.9800 O.2   152  ALA152     -0.2715
     70  CB        22.9500   30.4760  -16.5190 C.3   152  ALA152      0.0334
     71  N         23.4560   33.5040  -15.1140 N.am  153  ALA153     -0.1977
     72  CA        23.2900   34.3170  -13.9130 C.3   153  ALA153      0.1597
     73  C         21.8570   34.7910  -13.6550 C.2   153  ALA153      0.2287
     74  O         21.3020   35.5840  -14.4170 O.2   153  ALA153     -0.2864
     75  CB        24.2260   35.5160  -13.9780 C.3   153  ALA153      0.0319
     76  N         25.1360   29.6030  -12.0720 N.3   159  THR159     -0.1218
     77  CA        25.4790   28.2560  -12.4920 C.3   159  THR159      0.1862
     78  C         26.6640   28.2460  -13.4480 C.2   159  THR159      0.2287
     79  O         26.7920   29.1250  -14.2980 O.2   159  THR159     -0.2866
     80  CB        24.2780   27.5910  -13.1770 C.3   159  THR159      0.1770
     81  OG1       23.1270   27.7050  -12.3270 O.3   159  THR159     -0.2211
     82  CG2       24.5690   26.1200  -13.4550 C.3   159  THR159      0.0375
     83  N         28.9230   25.8880  -16.2210 N.3   161  ASP161     -0.1225
     84  CA        28.9470   24.7120  -17.0770 C.3   161  ASP161      0.1805
     85  C         30.3500   24.5030  -17.6310 C.2   161  ASP161      0.2598
     86  O         30.8290   25.2840  -18.4510 O.2   161  ASP161     -0.2718
     87  CB        27.9410   24.8790  -18.2170 C.3   161  ASP161      0.1424
     88  CG        27.9420   23.7040  -19.1750 C.2   161  ASP161      0.3668
     89  OD1       28.3010   22.5840  -18.7480 O.co2 161  ASP161     -0.2456
     90  OD2       27.5660   23.8980  -20.3520 O.co2 161  ASP161     -0.2456
     91  N         31.0020   23.4410  -17.1680 N.am  162  PHE162     -0.1962
     92  CA        32.3540   23.1170  -17.5970 C.3   162  PHE162      0.1771
     93  C         32.3290   22.1300  -18.7720 C.2   162  PHE162      0.2620
     94  O         33.3700   21.6480  -19.2120 O.2   162  PHE162     -0.2715
     95  CB        33.1340   22.5270  -16.4190 C.3   162  PHE162      0.0574
     96  CG        33.0260   23.3370  -15.1440 C.ar  162  PHE162     -0.0200
     97  CD1       33.7820   24.4940  -14.9620 C.ar  162  PHE162     -0.0042
     98  CD2       32.1500   22.9470  -14.1330 C.ar  162  PHE162     -0.0042
     99  CE1       33.6640   25.2490  -13.7910 C.ar  162  PHE162     -0.0003
    100  CE2       32.0240   23.6920  -12.9630 C.ar  162  PHE162     -0.0003
    101  CZ        32.7810   24.8440  -12.7920 C.ar  162  PHE162     -0.0000
    102  N         31.1330   21.8290  -19.2710 N.am  163  GLY163     -0.1940
    103  CA        30.9890   20.9270  -20.4060 C.3   163  GLY163      0.2014
    104  C         31.6690   19.5650  -20.3360 C.2   163  GLY163      0.2638
    105  O         31.1300   18.6160  -19.7530 O.2   163  GLY163     -0.2714
    106  N         32.8500   19.4630  -20.9470 N.am  164  ASP164     -0.1971
    107  CA        33.6150   18.2070  -20.9850 C.3   164  ASP164      0.1709
    108  C         34.3190   17.7760  -19.6980 C.2   164  ASP164      0.2293
    109  O         34.4350   16.5790  -19.4260 O.2   164  ASP164     -0.2864
    110  CB        34.6420   18.2430  -22.1260 C.3   164  ASP164      0.1436
    111  CG        34.0010   18.0320  -23.4840 C.2   164  ASP164      0.3671
    112  OD1       33.0290   18.7560  -23.7760 O.co2 164  ASP164     -0.2456
    113  OD2       34.4560   17.1560  -24.2570 O.co2 164  ASP164     -0.2456
    114  N         26.5480   20.3780  -13.4900 N.3   169  TYR169     -0.1241
    115  CA        27.0490   21.7400  -13.3500 C.3   169  TYR169      0.1605
    116  C         27.4960   22.0290  -11.9200 C.2   169  TYR169      0.2264
    117  O         27.8960   21.1290  -11.1810 O.2   169  TYR169     -0.2867
    118  CB        25.9570   22.7430  -13.7350 C.3   169  TYR169      0.0534
    119  CG        25.3820   22.5510  -15.1200 C.ar  169  TYR169     -0.0201
    120  CD1       26.2080   22.5290  -16.2430 C.ar  169  TYR169     -0.0009
    121  CD2       24.0060   22.4200  -15.3120 C.ar  169  TYR169     -0.0009
    122  CE1       25.6770   22.3830  -17.5240 C.ar  169  TYR169      0.0417
    123  CE2       23.4640   22.2760  -16.5920 C.ar  169  TYR169      0.0417
    124  CZ        24.3080   22.2590  -17.6920 C.ar  169  TYR169      0.1957
    125  OH        23.7910   22.1220  -18.9600 O.3   169  TYR169     -0.2866
    126  N         38.0360   36.2860  -18.3970 N.3   188  ILE188     -0.1231
    127  CA        38.1190   35.4440  -19.5870 C.3   188  ILE188      0.1692
    128  C         38.4180   36.2330  -20.8610 C.2   188  ILE188      0.2592
    129  O         39.1110   35.7320  -21.7470 O.2   188  ILE188     -0.2718
    130  CB        36.8190   34.6290  -19.7900 C.3   188  ILE188      0.0266
    131  CG1       36.7570   33.4980  -18.7580 C.3   188  ILE188      0.0019
    132  CG2       36.7620   34.0680  -21.2090 C.3   188  ILE188      0.0020
    133  CD1       35.5540   32.5770  -18.9080 C.3   188  ILE188      0.0001
    134  N         37.8980   37.4580  -20.9520 N.am  189  ASP189     -0.1974
    135  CA        38.1280   38.3060  -22.1240 C.3   189  ASP189      0.1709
    136  C         39.6110   38.6300  -22.3080 C.2   189  ASP189      0.2293
    137  O         40.1220   38.6610  -23.4280 O.2   189  ASP189     -0.2864
    138  CB        37.3370   39.6220  -22.0160 C.3   189  ASP189      0.1436
    139  CG        35.8800   39.4730  -22.4350 C.2   189  ASP189      0.3671
    140  OD1       35.5740   38.5290  -23.1940 O.co2 189  ASP189     -0.2456
    141  OD2       35.0450   40.3110  -22.0220 O.co2 189  ASP189     -0.2456
    142  N         42.2310   36.8280  -21.2760 N.3   191  ILE191     -0.1231
    143  CA        43.0300   35.6440  -21.5780 C.3   191  ILE191      0.1692
    144  C         43.2740   35.3830  -23.0660 C.2   191  ILE191      0.2591
    145  O         44.4090   35.1370  -23.4770 O.2   191  ILE191     -0.2718
    146  CB        42.3920   34.3750  -20.9640 C.3   191  ILE191      0.0266
    147  CG1       42.2420   34.5440  -19.4480 C.3   191  ILE191      0.0019
    148  CG2       43.2530   33.1580  -21.2760 C.3   191  ILE191      0.0020
    149  CD1       41.6730   33.3280  -18.7420 C.3   191  ILE191      0.0001
    150  N         42.2140   35.4260  -23.8680 N.am  192  LEU192     -0.1980
    151  CA        42.3410   35.1730  -25.3010 C.3   192  LEU192      0.1596
    152  C         43.2010   36.2430  -25.9740 C.2   192  LEU192      0.2287
    153  O         44.2880   35.8870  -26.4870 O.2   192  LEU192     -0.2864
    154  CB        40.9510   35.1270  -25.9510 C.3   192  LEU192      0.0297
    155  CG        40.7750   34.3080  -27.2400 C.3   192  LEU192      0.0022
    156  CD1       41.6450   34.8690  -28.3520 C.3   192  LEU192      0.0001
    157  CD2       41.1300   32.8480  -26.9690 C.3   192  LEU192      0.0001
@<TRIPOS>BOND
     1   156   155    1
     2   155   157    1
     3   155   154    1
     4   153   152    2
     5   152   151    1
     6   154   151    1
     7   151   150    1
     8    40    39    1
     9    39    38    1
    10   113   111   ar
    11   150   144   am
    12   112   111   ar
    13   111   110    1
    14   145   144    2
    15   137   136    2
    16   140   139   ar
    17    38    37    1
    18   144   143    1
    19    37    36    1
    20    50    49    1
    21   139   141   ar
    22   139   138    1
    23    35    34    2
    24   136   135    1
    25   110   107    1
    26   135   138    1
    27   135   134    1
    28    49    51    1
    29    49    48    2
    30   129   128    2
    31   143   142    1
    32   143   146    1
    33    47    48    1
    34    47    46    1
    35    36    33    1
    36    34    33    1
    37    34    41   am
    38    33    32    1
    39   148   146    1
    40   132   130    1
    41    45    46    1
    42    45    42    1
    43   107   106    1
    44   107   108    1
    45   146   147    1
    46   134   128   am
    47   106   104   am
    48   128   127    1
    49    27    26    2
    50    12    11    2
    51   103   104    1
    52   103   102    1
    53    90    88   ar
    54    41    42    1
    55   104   105    2
    56    42    43    1
    57    32    26   am
    58    15    13    1
    59    65    64   ar
    60    65    63   ar
    61    13    10    1
    62    13    14    1
    63    26    25    1
    64   130   127    1
    65   130   131    1
    66   108   109    2
    67   127   126    1
    68    11    10    1
    69    11    16   am
    70    64    62   ar
    71   147   149    1
    72    10     9    1
    73    63    61   ar
    74   102    93   am
    75    94    93    2
    76    88    89   ar
    77    88    87    1
    78   125   124    1
    79   133   131    1
    80    43    52   am
    81    43    44    2
    82    93    92    1
    83    62    59   ar
    84    52    53    1
    85    61    59   ar
    86    61    60   ar
    87    17    18    1
    88    17    16    1
    89    17    20    1
    90    19    18    2
    91    18    24   am
    92    22    21    2
    93    86    85    2
    94    24    25    1
    95    25    28    1
    96     4     3    2
    97    55    54    2
    98    87    84    1
    99    59    57   ar
   100     9     3   am
   101    60    58   ar
   102    30    28    1
   103    28    29    1
   104   124   122   ar
   105   124   123   ar
   106    85    91   am
   107    85    84    1
   108     3     2    1
   109    92    91    1
   110    92    95    1
   111   122   120   ar
   112    21    20    1
   113    21    23   am
   114    54    53    1
   115    54    66   am
   116    53    56    1
   117    57    58   ar
   118    57    56    1
   119    84    83    1
   120   123   121   ar
   121    70    67    1
   122    95    96    1
   123    66    67    1
   124    67    68    1
   125    29    31    1
   126     5     2    1
   127     5     6    1
   128   120   119   ar
   129     2     1    1
   130   121   119   ar
   131     7     6    1
   132    96    97   ar
   133    96    98   ar
   134   119   118    1
   135    71    68   am
   136    71    72    1
   137    68    69    2
   138     6     8    1
   139    97    99   ar
   140    74    73    2
   141    79    78    2
   142    98   100   ar
   143    75    72    1
   144    72    73    1
   145    99   101   ar
   146   118   115    1
   147   114   115    1
   148    82    80    1
   149    78    77    1
   150   115   116    1
   151    80    77    1
   152    80    81    1
   153   100   101   ar
   154    77    76    1
   155   116   117    2
