@<TRIPOS>MOLECULE
tmp/1y1aB00.pdb
 102 99 0 0 0
SMALL
GASTEIGER

@<TRIPOS>ATOM
      1  N         12.5310   70.8340  116.8880 N.3     4  LEU4       -0.1245
      2  CA        11.4130   70.5720  117.7830 C.3     4  LEU4        0.1561
      3  C         11.3910   69.0900  118.1310 C.2     4  LEU4        0.2260
      4  O         11.2610   68.7180  119.2990 O.2     4  LEU4       -0.2867
      5  CB        10.0860   70.9730  117.1300 C.3     4  LEU4        0.0270
      6  CG         9.7590   72.4690  117.0560 C.3     4  LEU4        0.0019
      7  CD1        8.4000   72.6690  116.3940 C.3     4  LEU4        0.0001
      8  CD2        9.7520   73.0630  118.4580 C.3     4  LEU4        0.0001
      9  N         13.8240   68.6530  120.7010 N.3     7  GLU7       -0.1231
     10  CA        13.3900   69.1930  121.9830 C.3     7  GLU7        0.1699
     11  C         12.4020   68.2590  122.6750 C.2     7  GLU7        0.2592
     12  O         12.5290   67.9840  123.8670 O.2     7  GLU7       -0.2718
     13  CB        12.7400   70.5630  121.7960 C.3     7  GLU7        0.0402
     14  CG        13.7140   71.6880  121.4770 C.3     7  GLU7        0.1161
     15  CD        13.0200   73.0400  121.3740 C.2     7  GLU7        0.3649
     16  OE1       12.3580   73.4480  122.3570 O.co2   7  GLU7       -0.2457
     17  OE2       13.1350   73.6930  120.3100 O.co2   7  GLU7       -0.2457
     18  N         11.4170   67.7770  121.9230 N.am    8  TYR8       -0.1976
     19  CA        10.4160   66.8700  122.4670 C.3     8  TYR8        0.1639
     20  C         11.0600   65.5780  122.9350 C.2     8  TYR8        0.2290
     21  O         10.5230   64.8720  123.7940 O.2     8  TYR8       -0.2864
     22  CB         9.3470   66.5680  121.4160 C.3     8  TYR8        0.0560
     23  CG         8.3450   67.6850  121.2480 C.ar    8  TYR8       -0.0198
     24  CD1        7.4380   67.9880  122.2630 C.ar    8  TYR8       -0.0009
     25  CD2        8.3240   68.4620  120.0910 C.ar    8  TYR8       -0.0009
     26  CE1        6.5350   69.0410  122.1330 C.ar    8  TYR8        0.0417
     27  CE2        7.4260   69.5190  119.9500 C.ar    8  TYR8        0.0417
     28  CZ         6.5380   69.8020  120.9740 C.ar    8  TYR8        0.1957
     29  OH         5.6620   70.8530  120.8470 O.3     8  TYR8       -0.2866
     30  N          2.2280   62.5770  117.1210 N.3    23  HIS23      -0.1241
     31  CA         1.8720   63.8470  116.4970 C.3    23  HIS23       0.1621
     32  C          0.7380   63.6500  115.4960 C.2    23  HIS23       0.2264
     33  O         -0.1780   64.4680  115.4160 O.2    23  HIS23      -0.2867
     34  CB         3.0680   64.4600  115.7740 C.3    23  HIS23       0.0745
     35  CG         2.7330   65.7210  115.0410 C.ar   23  HIS23       0.0817
     36  ND1        2.9870   65.8940  113.6970 N.ar   23  HIS23      -0.2268
     37  CD2        2.1330   66.8610  115.4600 C.ar   23  HIS23       0.1154
     38  CE1        2.5560   67.0840  113.3190 C.ar   23  HIS23       0.1986
     39  NE2        2.0330   67.6910  114.3700 N.ar   23  HIS23      -0.2212
     40  N         -2.4210   63.2310  117.2570 N.3    26  PHE26      -0.1241
     41  CA        -2.8100   64.5170  117.7980 C.3    26  PHE26       0.1605
     42  C         -3.4920   65.3410  116.7040 C.2    26  PHE26       0.2264
     43  O         -4.5830   65.8810  116.9030 O.2    26  PHE26      -0.2867
     44  CB        -1.5700   65.2470  118.2880 C.3    26  PHE26       0.0534
     45  CG        -1.8640   66.4880  119.0630 C.ar   26  PHE26      -0.0203
     46  CD1       -2.4350   66.4120  120.3310 C.ar   26  PHE26      -0.0042
     47  CD2       -1.5380   67.7380  118.5430 C.ar   26  PHE26      -0.0042
     48  CE1       -2.6720   67.5670  121.0750 C.ar   26  PHE26      -0.0003
     49  CE2       -1.7710   68.8980  119.2770 C.ar   26  PHE26      -0.0003
     50  CZ        -2.3390   68.8140  120.5490 C.ar   26  PHE26      -0.0000
     51  N         -7.3220   67.2380  116.3760 N.3    30  LEU30      -0.1245
     52  CA        -7.4810   68.6840  116.3590 C.3    30  LEU30       0.1561
     53  C         -8.6760   69.0790  115.4940 C.2    30  LEU30       0.2260
     54  O         -9.1820   68.2710  114.7130 O.2    30  LEU30      -0.2867
     55  CB        -6.2180   69.3500  115.8090 C.3    30  LEU30       0.0270
     56  CG        -5.0000   69.4630  116.7240 C.3    30  LEU30       0.0019
     57  CD1       -3.8330   70.0580  115.9500 C.3    30  LEU30       0.0001
     58  CD2       -5.3440   70.3390  117.9190 C.3    30  LEU30       0.0001
     59  N          0.6630   77.6520  115.4960 N.3    41  LEU41      -0.1231
     60  CA         0.9960   76.2480  115.7000 C.3    41  LEU41       0.1693
     61  C          0.9770   75.9870  117.2050 C.2    41  LEU41       0.2592
     62  O          1.9140   75.4090  117.7580 O.2    41  LEU41      -0.2718
     63  CB         2.3960   75.9580  115.1510 C.3    41  LEU41       0.0284
     64  CG         2.8260   76.7220  113.8970 C.3    41  LEU41       0.0019
     65  CD1        4.1950   76.2340  113.4530 C.3    41  LEU41       0.0001
     66  CD2        1.8080   76.5210  112.7950 C.3    41  LEU41       0.0001
     67  N         -0.0950   76.4150  117.8640 N.am   42  ARG42      -0.1966
     68  CA        -0.2120   76.2540  119.3090 C.3    42  ARG42       0.1729
     69  C         -1.5520   75.6400  119.7110 C.2    42  ARG42       0.2616
     70  O         -1.8380   75.4760  120.8970 O.2    42  ARG42      -0.2715
     71  CB        -0.0400   77.6210  119.9750 C.3    42  ARG42       0.0348
     72  CG         0.3930   77.5880  121.4240 C.3    42  ARG42       0.0492
     73  CD         0.7520   78.9920  121.8820 C.3    42  ARG42       0.2205
     74  NE         1.3670   79.0100  123.2060 N.pl3  42  ARG42      -0.0865
     75  CZ         1.8480   80.1040  123.7880 C.cat  42  ARG42       0.5346
     76  NH1        1.7840   81.2730  123.1610 N.pl3  42  ARG42       0.1354
     77  NH2        2.3940   80.0320  124.9960 N.pl3  42  ARG42       0.1354
     78  N         -2.3650   75.3000  118.7150 N.am   43  ALA43      -0.1977
     79  CA        -3.6760   74.7100  118.9550 C.3    43  ALA43       0.1597
     80  C         -3.6000   73.5260  119.9220 C.2    43  ALA43       0.2287
     81  O         -2.5570   72.8880  120.0650 O.2    43  ALA43      -0.2864
     82  CB        -4.2930   74.2720  117.6330 C.3    43  ALA43       0.0319
     83  N          0.2300   69.4340  122.9340 N.3    80  PHE80      -0.1227
     84  CA         0.9050   68.2510  122.4150 C.3    80  PHE80       0.1736
     85  C          1.7710   67.6050  123.5020 C.2    80  PHE80       0.2595
     86  O          1.8750   66.3760  123.5710 O.2    80  PHE80      -0.2718
     87  CB         1.7610   68.5930  121.1900 C.3    80  PHE80       0.0547
     88  CG         2.3900   67.3890  120.5490 C.ar   80  PHE80      -0.0202
     89  CD1        1.6170   66.2710  120.2440 C.ar   80  PHE80      -0.0042
     90  CD2        3.7510   67.3600  120.2700 C.ar   80  PHE80      -0.0042
     91  CE1        2.1930   65.1360  119.6730 C.ar   80  PHE80      -0.0003
     92  CE2        4.3370   66.2320  119.6970 C.ar   80  PHE80      -0.0003
     93  CZ         3.5570   65.1170  119.3990 C.ar   80  PHE80      -0.0000
     94  N          2.3910   68.4270  124.3450 N.am   81  GLU81      -0.1979
     95  CA         3.1990   67.9000  125.4470 C.3    81  GLU81       0.1602
     96  C          2.3180   67.0800  126.3900 C.2    81  GLU81       0.2287
     97  O          2.6940   65.9770  126.8000 O.2    81  GLU81      -0.2864
     98  CB         3.8390   69.0240  126.2520 C.3    81  GLU81       0.0415
     99  CG         5.1630   69.5090  125.7260 C.3    81  GLU81       0.1163
    100  CD         5.8070   70.4950  126.6790 C.2    81  GLU81       0.3649
    101  OE1        6.0080   70.1300  127.8620 O.co2  81  GLU81      -0.2457
    102  OE2        6.1080   71.6300  126.2460 O.co2  81  GLU81      -0.2457
@<TRIPOS>BOND
     1    66    64    1
     2    38    36   ar
     3    38    39   ar
     4    65    64    1
     5    36    35   ar
     6    64    63    1
     7    39    37   ar
     8    54    53    2
     9    35    37   ar
    10    35    34    1
    11    63    60    1
    12    33    32    2
    13    53    52    1
    14    32    31    1
    15    59    60    1
    16    60    61    1
    17    34    31    1
    18    55    52    1
    19    55    56    1
    20    57    56    1
    21    52    51    1
    22     7     6    1
    23    31    30    1
    24    42    43    2
    25    42    41    1
    26    56    58    1
    27     1     2    1
    28     6     5    1
    29     6     8    1
    30     5     2    1
    31    61    62    2
    32    61    67   am
    33    40    41    1
    34    82    79    1
    35     2     3    1
    36    41    44    1
    37    67    68    1
    38     3     4    2
    39    44    45    1
    40    47    45   ar
    41    47    49   ar
    42    78    79    1
    43    78    69   am
    44    79    80    1
    45    45    46   ar
    46    49    50   ar
    47    68    69    1
    48    68    71    1
    49    93    91   ar
    50    93    92   ar
    51    91    89   ar
    52    92    90   ar
    53    69    70    2
    54    80    81    2
    55    27    25   ar
    56    27    28   ar
    57    71    72    1
    58    25    23   ar
    59    89    88   ar
    60    90    88   ar
    61    17    15   ar
    62    46    48   ar
    63    88    87    1
    64    50    48   ar
    65     9    10    1
    66    29    28    1
    67    28    26   ar
    68    87    84    1
    69    23    22    1
    70    23    24   ar
    71    15    14    1
    72    15    16   ar
    73    22    19    1
    74    72    73    1
    75    14    13    1
    76    13    10    1
    77    73    74    1
    78    18    19    1
    79    18    11   am
    80    10    11    1
    81    26    24   ar
    82    84    83    1
    83    84    85    1
    84    19    20    1
    85    11    12    2
    86    20    21    2
    87    76    75    1
    88    74    75    2
    89    85    86    2
    90    85    94   am
    91    75    77    1
    92    94    95    1
    93    95    98    1
    94    95    96    1
    95    99    98    1
    96    99   100    1
    97   102   100   ar
    98    96    97    2
    99   100   101   ar
