@<TRIPOS>MOLECULE
tmp/1y1jA00.pdb
 90 86 0 0 0
SMALL
GASTEIGER

@<TRIPOS>ATOM
      1  N         19.0370   39.7270   24.0940 N.3    75  GLY75      -0.1210
      2  CA        18.8880   38.7840   23.0060 C.3    75  GLY75       0.1956
      3  C         19.0160   37.3270   23.3910 C.2    75  GLY75       0.2612
      4  O         18.7510   36.4550   22.5580 O.2    75  GLY75      -0.2717
      5  N         19.4290   37.0580   24.6330 N.am   76  MET76      -0.1965
      6  CA        19.5870   35.6810   25.1260 C.3    76  MET76       0.1736
      7  C         18.4080   35.2010   25.9710 C.2    76  MET76       0.2616
      8  O         18.3680   34.0350   26.3810 O.2    76  MET76      -0.2715
      9  CB        20.8480   35.5730   25.9690 C.3    76  MET76       0.0427
     10  CG        22.1020   36.0570   25.2650 C.3    76  MET76       0.0599
     11  SD        22.5010   35.0500   23.8560 S.3    76  MET76      -0.1393
     12  CE        22.9750   33.5480   24.6950 C.3    76  MET76       0.0692
     13  N         17.4700   36.1020   26.2310 N.am   77  LEU77      -0.1963
     14  CA        16.2860   35.7880   27.0200 C.3    77  LEU77       0.1728
     15  C         15.3300   34.8830   26.2640 C.2    77  LEU77       0.2616
     16  O         15.0850   35.0640   25.0630 O.2    77  LEU77      -0.2715
     17  CB        15.5850   37.0740   27.4560 C.3    77  LEU77       0.0311
     18  CG        16.4490   37.9290   28.3860 C.3    77  LEU77       0.0022
     19  CD1       15.6530   39.1380   28.8730 C.3    77  LEU77       0.0001
     20  CD2       17.0040   37.1400   29.5820 C.3    77  LEU77       0.0001
     21  N         14.7850   33.9080   26.9850 N.am   78  SER78      -0.1950
     22  CA        14.0590   32.8100   26.3510 C.3    78  SER78       0.1924
     23  C         12.7400   33.2990   25.7490 C.2    78  SER78       0.2314
     24  O         12.1310   32.6280   24.8960 O.2    78  SER78      -0.2863
     25  CB        13.7920   31.7140   27.3720 C.3    78  SER78       0.2116
     26  OG        12.5830   31.9840   28.0670 O.3    78  SER78      -0.2180
     27  N         21.0610   33.0050   32.0770 N.3    96  GLU96      -0.1245
     28  CA        20.0080   33.9300   31.5990 C.3    96  GLU96       0.1567
     29  C         18.9390   34.2180   32.6490 C.2    96  GLU96       0.2260
     30  O         17.9570   34.9050   32.3370 O.2    96  GLU96      -0.2867
     31  CB        19.3240   33.4120   30.3310 C.3    96  GLU96       0.0388
     32  CG        20.2390   33.3230   29.1140 C.3    96  GLU96       0.1160
     33  CD        20.9990   32.0170   29.0400 C.2    96  GLU96       0.3649
     34  OE1       20.4000   30.9600   29.3340 O.co2  96  GLU96      -0.2457
     35  OE2       22.1830   32.0410   28.6720 O.co2  96  GLU96      -0.2457
     36  N         15.5430   30.1940   35.4820 N.3    99  ASP99      -0.1225
     37  CA        15.0670   29.0240   34.7200 C.3    99  ASP99       0.1805
     38  C         16.0300   28.5550   33.6260 C.2    99  ASP99       0.2598
     39  O         15.7040   27.6660   32.8330 O.2    99  ASP99      -0.2718
     40  CB        13.6840   29.2940   34.1320 C.3    99  ASP99       0.1424
     41  CG        12.6350   29.4910   35.2090 C.2    99  ASP99       0.3668
     42  OD1       12.4390   28.5620   36.0320 O.co2  99  ASP99      -0.2456
     43  OD2       12.0330   30.5890   35.2320 O.co2  99  ASP99      -0.2456
     44  N         17.2240   29.1400   33.5930 N.am  100  SER100     -0.1938
     45  CA        18.2560   28.6750   32.6870 C.3   100  SER100      0.2055
     46  C         19.1860   27.7880   33.4910 C.2   100  SER100      0.2643
     47  O         19.1120   27.7700   34.7180 O.2   100  SER100     -0.2714
     48  CB        18.9970   29.8480   32.0670 C.3   100  SER100      0.2130
     49  OG        19.7320   30.5530   33.0510 O.3   100  SER100     -0.2179
     50  N         20.0350   27.0390   32.7960 N.am  101  THR101     -0.1950
     51  CA        20.9200   26.0870   33.4410 C.3   101  THR101      0.1897
     52  C         22.2360   25.9870   32.6700 C.2   101  THR101      0.2313
     53  O         22.3210   26.3890   31.4960 O.2   101  THR101     -0.2863
     54  CB        20.2690   24.6840   33.4960 C.3   101  THR101      0.1794
     55  OG1       21.1620   23.7770   34.1240 O.3   101  THR101     -0.2208
     56  CG2       19.9680   24.1430   32.1030 C.3   101  THR101      0.0378
     57  N         23.7560   21.5190   30.1190 N.3   104  HIS104     -0.1226
     58  CA        24.0210   21.1780   28.7260 C.3   104  HIS104      0.1752
     59  C         25.2580   21.8940   28.1510 C.2   104  HIS104      0.2595
     60  O         25.6050   21.7410   26.9610 O.2   104  HIS104     -0.2718
     61  CB        22.7990   21.5430   27.8920 C.3   104  HIS104      0.0759
     62  CG        22.4730   22.9970   27.9200 C.ar  104  HIS104      0.0818
     63  ND1       21.7370   23.5700   28.9320 N.ar  104  HIS104     -0.2268
     64  CD2       22.7810   23.9980   27.0590 C.ar  104  HIS104      0.1154
     65  CE1       21.6370   24.8730   28.7100 C.ar  104  HIS104      0.1986
     66  NE2       22.2410   25.1540   27.5680 N.ar  104  HIS104     -0.2212
     67  N         25.9120   22.7210   28.9660 N.am  105  ARG105     -0.1980
     68  CA        27.0280   23.5270   28.4810 C.3   105  ARG105      0.1597
     69  C         28.1540   23.5500   29.5090 C.2   105  ARG105      0.2287
     70  O         28.6420   24.6060   29.8720 O.2   105  ARG105     -0.2864
     71  CB        26.5790   24.9550   28.1370 C.3   105  ARG105      0.0334
     72  CG        25.7590   25.6480   29.2000 C.3   105  ARG105      0.0492
     73  CD        25.3820   27.0960   28.8320 C.3   105  ARG105      0.2205
     74  NE        24.0960   27.4650   29.4300 N.pl3 105  ARG105     -0.0865
     75  CZ        23.4770   28.6290   29.2500 C.cat 105  ARG105      0.5346
     76  NH1       24.0470   29.5810   28.5370 N.pl3 105  ARG105      0.1354
     77  NH2       22.2780   28.8340   29.7600 N.pl3 105  ARG105      0.1354
     78  N         25.5640   31.1400   18.6590 N.3   180  GLN180     -0.1231
     79  CA        24.9100   32.4120   18.9230 C.3   180  GLN180      0.1698
     80  C         25.3540   32.9810   20.2630 C.2   180  GLN180      0.2592
     81  O         25.7340   34.1610   20.3460 O.2   180  GLN180     -0.2718
     82  CB        23.3990   32.2540   18.8580 C.3   180  GLN180      0.0381
     83  CG        22.9780   31.9970   17.4410 C.3   180  GLN180      0.0905
     84  CD        21.5220   31.7210   17.2710 C.2   180  GLN180      0.2608
     85  OE1       20.9320   30.9100   18.0050 O.2   180  GLN180     -0.2717
     86  NE2       20.9310   32.3460   16.2630 N.am  180  GLN180     -0.0878
     87  N         25.2970   32.1590   21.3020 N.am  181  GLY181     -0.1957
     88  CA        25.8830   32.4770   22.5930 C.3   181  GLY181      0.1869
     89  C         27.3250   32.0270   22.6600 C.2   181  GLY181      0.2309
     90  O         28.0500   32.0750   21.6670 O.2   181  GLY181     -0.2863
@<TRIPOS>BOND
     1    86    84   am
     2    84    83    1
     3    84    85    2
     4    83    82    1
     5    78    79    1
     6    82    79    1
     7    79    80    1
     8    80    81    2
     9    80    87   am
    10    87    88    1
    11    90    89    2
    12     4     3    2
    13    88    89    1
    14     2     3    1
    15     2     1    1
    16     3     5   am
    17    11    12    1
    18    11    10    1
    19     5     6    1
    20    24    23    2
    21    16    15    2
    22     6     9    1
    23     6     7    1
    24    10     9    1
    25    23    22    1
    26     7    13   am
    27     7     8    2
    28    13    14    1
    29    15    21   am
    30    15    14    1
    31    22    21    1
    32    22    25    1
    33    60    59    2
    34    14    17    1
    35    64    66   ar
    36    64    62   ar
    37    25    26    1
    38    17    18    1
    39    66    65   ar
    40    61    62    1
    41    61    58    1
    42    62    63   ar
    43    71    68    1
    44    71    72    1
    45    59    58    1
    46    59    67   am
    47    18    19    1
    48    18    20    1
    49    68    67    1
    50    68    69    1
    51    76    75    1
    52    35    33   ar
    53    65    63   ar
    54    58    57    1
    55    73    72    1
    56    73    74    1
    57    33    32    1
    58    33    34   ar
    59    32    31    1
    60    75    74    2
    61    75    77    1
    62    69    70    2
    63    31    28    1
    64    53    52    2
    65    28    27    1
    66    28    29    1
    67    48    45    1
    68    48    49    1
    69    56    54    1
    70    30    29    2
    71    52    51    1
    72    45    46    1
    73    45    44    1
    74    50    51    1
    75    50    46   am
    76    39    38    2
    77    51    54    1
    78    46    47    2
    79    54    55    1
    80    44    38   am
    81    38    37    1
    82    40    37    1
    83    40    41    1
    84    37    36    1
    85    41    43   ar
    86    41    42   ar
