@<TRIPOS>MOLECULE
tmp/1y1mB00.pdb
 105 103 0 0 0
SMALL
GASTEIGER

@<TRIPOS>ATOM
      1  N         15.9300  -13.0500  -28.7200 N.3     9  GLN9       -0.1245
      2  CA        15.6850  -11.7210  -28.1630 C.3     9  GLN9        0.1566
      3  C         16.6780  -11.4360  -27.0420 C.2     9  GLN9        0.2260
      4  O         16.4410  -11.7870  -25.8830 O.2     9  GLN9       -0.2867
      5  CB        14.2580  -11.6280  -27.6130 C.3     9  GLN9        0.0367
      6  CG        13.8970  -10.2570  -27.0550 C.3     9  GLN9        0.0905
      7  CD        13.3900   -9.3070  -28.1190 C.2     9  GLN9        0.2608
      8  OE1       12.1800   -9.1520  -28.3060 O.2     9  GLN9       -0.2717
      9  NE2       14.3090   -8.6740  -28.8300 N.am    9  GLN9       -0.0878
     10  N          6.2920  -13.4770  -31.9290 N.3    78  PHE78      -0.1241
     11  CA         5.8390  -13.6920  -30.5610 C.3    78  PHE78       0.1605
     12  C          4.4050  -14.1860  -30.5780 C.2    78  PHE78       0.2264
     13  O          4.0700  -15.1750  -29.9170 O.2    78  PHE78      -0.2867
     14  CB         5.9290  -12.4020  -29.7360 C.3    78  PHE78       0.0534
     15  CG         7.3150  -12.0890  -29.2670 C.ar   78  PHE78      -0.0203
     16  CD1        8.2250  -11.4620  -30.1080 C.ar   78  PHE78      -0.0042
     17  CD2        7.7250  -12.4560  -27.9890 C.ar   78  PHE78      -0.0042
     18  CE1        9.5270  -11.2030  -29.6850 C.ar   78  PHE78      -0.0003
     19  CE2        9.0270  -12.2030  -27.5570 C.ar   78  PHE78      -0.0003
     20  CZ         9.9270  -11.5750  -28.4080 C.ar   78  PHE78      -0.0000
     21  N         10.5550  -13.4170  -23.5010 N.3   103  PRO103     -0.2102
     22  CA        10.0770  -12.1260  -22.9850 C.3   103  PRO103      0.1504
     23  C          8.7440  -11.7650  -23.6290 C.2   103  PRO103      0.2576
     24  O          8.6360  -10.8180  -24.4110 O.2   103  PRO103     -0.2718
     25  CB        11.2060  -11.1720  -23.3550 C.3   103  PRO103      0.0282
     26  CG        11.7320  -11.7620  -24.6290 C.3   103  PRO103      0.0208
     27  CD        11.7670  -13.2400  -24.3200 C.3   103  PRO103      0.0893
     28  N          7.7330  -12.5440  -23.2640 N.am  104  LEU104     -0.1966
     29  CA         6.3730  -12.4280  -23.7760 C.3   104  LEU104      0.1728
     30  C          5.4830  -11.5770  -22.8780 C.2   104  LEU104      0.2616
     31  O          5.2490  -11.9100  -21.7120 O.2   104  LEU104     -0.2715
     32  CB         5.7750  -13.8330  -23.8960 C.3   104  LEU104      0.0311
     33  CG         4.3700  -13.9840  -24.4740 C.3   104  LEU104      0.0022
     34  CD1        4.3960  -13.6520  -25.9560 C.3   104  LEU104      0.0001
     35  CD2        3.8920  -15.4250  -24.2600 C.3   104  LEU104      0.0001
     36  N          4.9700  -10.4870  -23.4330 N.am  105  THR105     -0.1951
     37  CA         4.1080   -9.5850  -22.6800 C.3   105  THR105      0.1897
     38  C          2.7620  -10.2010  -22.3210 C.2   105  THR105      0.2313
     39  O          2.0650  -10.7570  -23.1760 O.2   105  THR105     -0.2863
     40  CB         3.8260   -8.2990  -23.4730 C.3   105  THR105      0.1794
     41  OG1        5.0550   -7.6070  -23.7070 O.3   105  THR105     -0.2208
     42  CG2        2.8640   -7.3990  -22.7020 C.3   105  THR105      0.0378
     43  N         -4.0860  -12.0290  -25.2270 N.3   110  ARG110     -0.1245
     44  CA        -3.4620  -13.3320  -25.0560 C.3   110  ARG110      0.1563
     45  C         -4.0440  -14.0790  -23.8560 C.2   110  ARG110      0.2260
     46  O         -4.2430  -15.2930  -23.9130 O.2   110  ARG110     -0.2867
     47  CB        -1.9500  -13.1720  -24.8850 C.3   110  ARG110      0.0307
     48  CG        -1.2580  -12.6860  -26.1390 C.3   110  ARG110      0.0489
     49  CD         0.1920  -12.3010  -25.8790 C.3   110  ARG110      0.2205
     50  NE         0.8400  -11.8230  -27.0970 N.pl3 110  ARG110     -0.0865
     51  CZ         2.0220  -11.2170  -27.1270 C.cat 110  ARG110      0.5346
     52  NH1        2.6910  -11.0060  -26.0000 N.pl3 110  ARG110      0.1354
     53  NH2        2.5470  -10.8430  -28.2860 N.pl3 110  ARG110      0.1354
     54  N          3.5630   -5.6740  -34.6750 N.3   158  SER158     -0.1202
     55  CA         3.9290   -6.0860  -33.3260 C.3   158  SER158      0.2020
     56  C          2.7530   -5.8270  -32.3860 C.2   158  SER158      0.2619
     57  O          1.7860   -5.1540  -32.7520 O.2   158  SER158     -0.2717
     58  CB         5.1490   -5.2950  -32.8490 C.3   158  SER158      0.2103
     59  OG         4.8470   -3.9150  -32.7740 O.3   158  SER158     -0.2182
     60  N          2.8290   -6.3670  -31.1770 N.am  159  SER159     -0.1937
     61  CA         1.7690   -6.1550  -30.2000 C.3   159  SER159      0.2055
     62  C          1.7970   -4.6850  -29.7810 C.2   159  SER159      0.2642
     63  O          0.7900   -4.1330  -29.3480 O.2   159  SER159     -0.2714
     64  CB         1.9850   -7.0470  -28.9750 C.3   159  SER159      0.2130
     65  OG         3.2270   -6.7470  -28.3720 O.3   159  SER159     -0.2179
     66  N          2.9620   -4.0550  -29.9100 N.am  160  VAL160     -0.1977
     67  CA         3.0970   -2.6460  -29.5540 C.3   160  VAL160      0.1596
     68  C          2.3420   -1.8110  -30.5850 C.2   160  VAL160      0.2287
     69  O          1.6200   -0.8790  -30.2400 O.2   160  VAL160     -0.2864
     70  CB         4.5760   -2.2320  -29.5120 C.3   160  VAL160      0.0276
     71  CG1        4.7010   -0.7570  -29.1540 C.3   160  VAL160      0.0022
     72  CG2        5.3100   -3.0890  -28.4870 C.3   160  VAL160      0.0022
     73  N          9.3530    0.7710  -27.7160 N.3   202  TRP202     -0.1227
     74  CA         9.4310   -0.6870  -27.5990 C.3   202  TRP202      0.1737
     75  C          9.5080   -1.1050  -26.1340 C.2   202  TRP202      0.2595
     76  O          9.3820   -0.2730  -25.2310 O.2   202  TRP202     -0.2718
     77  CB        10.7000   -1.1360  -28.3290 C.3   202  TRP202      0.0564
     78  CG        10.7760   -2.5710  -28.7880 C.ar  202  TRP202      0.0003
     79  CD1       11.8130   -3.4420  -28.5690 C.ar  202  TRP202      0.0946
     80  CD2        9.8630   -3.2500  -29.6630 C.ar  202  TRP202      0.0152
     81  NE1       11.6050   -4.6140  -29.2630 N.ar  202  TRP202     -0.2442
     82  CE2       10.4180   -4.5230  -29.9410 C.ar  202  TRP202      0.0810
     83  CE3        8.6350   -2.9040  -30.2450 C.ar  202  TRP202      0.0012
     84  CZ2        9.7840   -5.4520  -30.7780 C.ar  202  TRP202      0.0191
     85  CZ3        8.0030   -3.8300  -31.0800 C.ar  202  TRP202      0.0001
     86  CH2        8.5830   -5.0880  -31.3350 C.ar  202  TRP202      0.0015
     87  N          9.7220   -2.4000  -25.9080 N.am  203  ASP203     -0.1974
     88  CA         9.8460   -2.9480  -24.5550 C.3   203  ASP203      0.1709
     89  C         11.0190   -2.3350  -23.7940 C.2   203  ASP203      0.2293
     90  O         12.1380   -2.2990  -24.3000 O.2   203  ASP203     -0.2864
     91  CB        10.0650   -4.4630  -24.6140 C.3   203  ASP203      0.1436
     92  CG         8.7780   -5.2420  -24.6710 C.2   203  ASP203      0.3671
     93  OD1        7.6980   -4.6340  -24.5260 O.co2 203  ASP203     -0.2456
     94  OD2        8.8550   -6.4770  -24.8550 O.co2 203  ASP203     -0.2456
     95  N          6.3860  -10.0090  -18.0200 N.3   229  PHE229     -0.1241
     96  CA         6.6650  -11.0970  -18.9530 C.3   229  PHE229      0.1605
     97  C          6.4300  -12.3380  -18.1200 C.2   229  PHE229      0.2264
     98  O          6.9200  -12.4230  -16.9930 O.2   229  PHE229     -0.2867
     99  CB         8.1270  -11.1250  -19.3950 C.3   229  PHE229      0.0534
    100  CG         8.5410   -9.9750  -20.2600 C.ar  229  PHE229     -0.0203
    101  CD1        7.6100   -9.2520  -20.9980 C.ar  229  PHE229     -0.0042
    102  CD2        9.8920   -9.6560  -20.3840 C.ar  229  PHE229     -0.0042
    103  CE1        8.0210   -8.2290  -21.8490 C.ar  229  PHE229     -0.0003
    104  CE2       10.3080   -8.6380  -21.2290 C.ar  229  PHE229     -0.0003
    105  CZ         9.3710   -7.9230  -21.9650 C.ar  229  PHE229     -0.0000
@<TRIPOS>BOND
     1    54    55    1
     2    55    58    1
     3    55    56    1
     4    58    59    1
     5    57    56    2
     6    56    60   am
     7    10    11    1
     8    86    85   ar
     9    86    84   ar
    10    60    61    1
    11    85    83   ar
    12    84    82   ar
    13    68    69    2
    14    68    67    1
    15    12    11    1
    16    12    13    2
    17    11    14    1
    18    83    80   ar
    19    61    62    1
    20    61    64    1
    21    16    18   ar
    22    16    15   ar
    23    82    80   ar
    24    82    81   ar
    25    66    62   am
    26    66    67    1
    27    62    63    2
    28    14    15    1
    29    18    20   ar
    30    80    78   ar
    31    67    70    1
    32    70    71    1
    33    70    72    1
    34    15    17   ar
    35    81    79   ar
    36    64    65    1
    37     9     7   am
    38    78    79   ar
    39    78    77    1
    40     1     2    1
    41    20    19   ar
    42    77    74    1
    43     8     7    2
    44    53    51    1
    45     2     5    1
    46     2     3    1
    47     7     6    1
    48    17    19   ar
    49    73    74    1
    50     5     6    1
    51    74    75    1
    52    51    50    2
    53    51    52    1
    54    50    49    1
    55     3     4    2
    56    48    49    1
    57    48    47    1
    58    75    87   am
    59    75    76    2
    60    34    33    1
    61    87    88    1
    62    43    44    1
    63    44    47    1
    64    44    45    1
    65    94    92   ar
    66    92    91    1
    67    92    93   ar
    68    26    27    1
    69    26    25    1
    70    91    88    1
    71    88    89    1
    72    33    35    1
    73    33    32    1
    74    24    23    2
    75    27    21    1
    76    90    89    2
    77    46    45    2
    78    32    29    1
    79    29    28    1
    80    29    30    1
    81    41    40    1
    82    23    28   am
    83    23    22    1
    84    21    22    1
    85    40    42    1
    86    40    37    1
    87    36    30   am
    88    36    37    1
    89    25    22    1
    90    39    38    2
    91    30    31    2
    92    37    38    1
    93   105   103   ar
    94   105   104   ar
    95   103   101   ar
    96   104   102   ar
    97   101   100   ar
    98   102   100   ar
    99   100    99    1
   100    99    96    1
   101    96    97    1
   102    96    95    1
   103    97    98    2
