@<TRIPOS>MOLECULE
tmp/1y1pA00.pdb
 207 197 0 0 0
SMALL
GASTEIGER

@<TRIPOS>ATOM
      1  N         -0.1070  -15.5370   -8.8890 N.3    18  GLY18      -0.1225
      2  CA        -1.0160  -16.1650   -9.8330 C.3    18  GLY18       0.1811
      3  C         -0.4160  -17.4610  -10.3400 C.2    18  GLY18       0.2280
      4  O         -0.4890  -17.7620  -11.5330 O.2    18  GLY18      -0.2866
      5  N         -1.3780  -20.4140  -10.2510 N.3    20  ASN20      -0.1225
      6  CA        -2.2960  -21.3990  -10.8180 C.3    20  ASN20       0.1785
      7  C         -2.5280  -21.1440  -12.3040 C.2    20  ASN20       0.2598
      8  O         -3.1530  -21.9520  -12.9910 O.2    20  ASN20      -0.2718
      9  CB        -3.6370  -21.3680  -10.0820 C.3    20  ASN20       0.1169
     10  CG        -4.3730  -20.0590  -10.2710 C.2    20  ASN20       0.2627
     11  OD1       -3.8410  -18.9890   -9.9810 O.2    20  ASN20      -0.2716
     12  ND2       -5.6090  -20.1360  -10.7590 N.am   20  ASN20      -0.0877
     13  N         -2.0220  -20.0150  -12.7920 N.am   21  GLY21      -0.1942
     14  CA        -2.1810  -19.6720  -14.1960 C.3    21  GLY21       0.2014
     15  C         -1.3230  -20.5420  -15.0950 C.2    21  GLY21       0.2639
     16  O         -0.4010  -21.2080  -14.6290 O.2    21  GLY21      -0.2714
     17  N         -1.6190  -20.5310  -16.3920 N.am   22  PHE22      -0.1959
     18  CA        -0.8700  -21.3400  -17.3520 C.3    22  PHE22       0.1771
     19  C          0.6090  -20.9560  -17.4320 C.2    22  PHE22       0.2619
     20  O          1.4800  -21.7670  -17.1300 O.2    22  PHE22      -0.2715
     21  CB        -1.5290  -21.2350  -18.7330 C.3    22  PHE22       0.0574
     22  CG        -0.7690  -21.9310  -19.8310 C.ar   22  PHE22      -0.0200
     23  CD1       -0.5500  -23.3050  -19.7850 C.ar   22  PHE22      -0.0042
     24  CD2       -0.2450  -21.2040  -20.8910 C.ar   22  PHE22      -0.0042
     25  CE1        0.1890  -23.9480  -20.7810 C.ar   22  PHE22      -0.0003
     26  CE2        0.4940  -21.8350  -21.8930 C.ar   22  PHE22      -0.0003
     27  CZ         0.7110  -23.2060  -21.8350 C.ar   22  PHE22      -0.0000
     28  N          0.8950  -19.7230  -17.8350 N.am   23  VAL23      -0.1963
     29  CA         2.2830  -19.2840  -17.9440 C.3    23  VAL23       0.1727
     30  C          2.9910  -19.3860  -16.5970 C.2    23  VAL23       0.2616
     31  O          4.1150  -19.8890  -16.5100 O.2    23  VAL23      -0.2715
     32  CB         2.3610  -17.8310  -18.4670 C.3    23  VAL23       0.0290
     33  CG1        3.7850  -17.3000  -18.3420 C.3    23  VAL23       0.0023
     34  CG2        1.8890  -17.7810  -19.9190 C.3    23  VAL23       0.0023
     35  N          2.3310  -18.9200  -15.5440 N.am   24  ALA24      -0.1977
     36  CA         2.9220  -18.9700  -14.2140 C.3    24  ALA24       0.1597
     37  C          3.3140  -20.3880  -13.7930 C.2    24  ALA24       0.2287
     38  O          4.3880  -20.5930  -13.2260 O.2    24  ALA24      -0.2864
     39  CB         1.9630  -18.3700  -13.1950 C.3    24  ALA24       0.0319
     40  N         -5.8810  -16.9210   -5.8130 N.3    43  ARG43      -0.1245
     41  CA        -6.9830  -16.3040   -5.0960 C.3    43  ARG43       0.1563
     42  C         -7.6650  -17.2570   -4.1240 C.2    43  ARG43       0.2260
     43  O         -8.4760  -16.8380   -3.2930 O.2    43  ARG43      -0.2867
     44  CB        -7.9630  -15.6740   -6.0840 C.3    43  ARG43       0.0307
     45  CG        -7.3420  -14.4390   -6.7380 C.3    43  ARG43       0.0489
     46  CD        -8.3540  -13.5490   -7.4180 C.3    43  ARG43       0.2205
     47  NE        -8.6970  -14.0160   -8.7520 N.pl3  43  ARG43      -0.0865
     48  CZ        -9.5600  -13.3980   -9.5500 C.cat  43  ARG43       0.5346
     49  NH1      -10.1670  -12.2930   -9.1380 N.pl3  43  ARG43       0.1354
     50  NH2       -9.8070  -13.8750  -10.7630 N.pl3  43  ARG43       0.1354
     51  N         -7.6940  -23.4470   -5.9290 N.3    47  LYS47      -0.1245
     52  CA        -7.2540  -23.2170   -7.3030 C.3    47  LYS47       0.1561
     53  C         -5.8700  -23.8000   -7.5750 C.2    47  LYS47       0.2260
     54  O         -5.5340  -24.1120   -8.7210 O.2    47  LYS47      -0.2867
     55  CB        -7.2720  -21.7170   -7.6220 C.3    47  LYS47       0.0271
     56  CG        -8.6660  -21.1820   -7.9250 C.3    47  LYS47       0.0035
     57  CD        -8.6760  -19.6760   -8.1310 C.3    47  LYS47       0.0206
     58  CE       -10.0740  -19.1930   -8.5040 C.3    47  LYS47       0.1093
     59  NZ       -10.1550  -17.7110   -8.6010 N.3    47  LYS47      -0.1314
     60  N         -3.8020  -15.2700   -1.7460 N.3    68  VAL68      -0.1245
     61  CA        -3.8950  -13.8240   -1.9090 C.3    68  VAL68       0.1561
     62  C         -5.1810  -13.6220   -2.7090 C.2    68  VAL68       0.2260
     63  O         -5.1850  -13.6820   -3.9360 O.2    68  VAL68      -0.2867
     64  CB        -2.6920  -13.2550   -2.6890 C.3    68  VAL68       0.0252
     65  CG1       -2.8690  -11.7580   -2.8920 C.3    68  VAL68       0.0019
     66  CG2       -1.4030  -13.5330   -1.9270 C.3    68  VAL68       0.0019
     67  N         -7.0680  -10.8970   -2.9950 N.3    70  ASP70      -0.1225
     68  CA        -7.1660   -9.5960   -3.6500 C.3    70  ASP70       0.1805
     69  C         -5.7660   -9.0410   -3.8950 C.2    70  ASP70       0.2597
     70  O         -5.1230   -8.5430   -2.9700 O.2    70  ASP70      -0.2718
     71  CB        -7.9600   -8.6450   -2.7510 C.3    70  ASP70       0.1424
     72  CG        -8.1440   -7.2700   -3.3580 C.2    70  ASP70       0.3668
     73  OD1       -8.7330   -6.4050   -2.6770 O.co2  70  ASP70      -0.2456
     74  OD2       -7.7070   -7.0510   -4.5070 O.co2  70  ASP70      -0.2456
     75  N         -5.2990   -9.1150   -5.1400 N.am   71  MET71      -0.1979
     76  CA        -3.9580   -8.6340   -5.4600 C.3    71  MET71       0.1605
     77  C         -3.8220   -7.1150   -5.4480 C.2    71  MET71       0.2287
     78  O         -2.7220   -6.5900   -5.6110 O.2    71  MET71      -0.2864
     79  CB        -3.4910   -9.1800   -6.8190 C.3    71  MET71       0.0413
     80  CG        -4.1410   -8.5420   -8.0340 C.3    71  MET71       0.0598
     81  SD        -3.3770   -9.0950   -9.5940 S.3    71  MET71      -0.1393
     82  CE        -4.3550   -8.1680  -10.7730 C.3    71  MET71       0.0692
     83  N          3.1290  -12.3780  -12.2570 N.3    90  ILE90      -0.1231
     84  CA         2.5360  -12.8980  -13.4830 C.3    90  ILE90       0.1692
     85  C          1.0350  -12.6730  -13.6240 C.2    90  ILE90       0.2592
     86  O          0.5270  -12.5200  -14.7360 O.2    90  ILE90      -0.2718
     87  CB         2.8460  -14.4080  -13.5880 C.3    90  ILE90       0.0266
     88  CG1        4.3430  -14.6300  -13.3280 C.3    90  ILE90       0.0019
     89  CG2        2.4510  -14.9400  -14.9560 C.3    90  ILE90       0.0020
     90  CD1        4.8170  -16.0580  -13.5010 C.3    90  ILE90       0.0001
     91  N          0.3270  -12.6460  -12.5000 N.am   91  ALA91      -0.1966
     92  CA        -1.1200  -12.4510  -12.5150 C.3    91  ALA91       0.1728
     93  C         -1.5560  -11.1240  -13.1300 C.2    91  ALA91       0.2617
     94  O         -0.9870  -10.0780  -12.8310 O.2    91  ALA91      -0.2715
     95  CB        -1.6670  -12.5600  -11.0960 C.3    91  ALA91       0.0334
     96  N         -2.5720  -11.1810  -13.9910 N.am   92  SER92      -0.1936
     97  CA        -3.1250   -9.9890  -14.6330 C.3    92  SER92       0.2055
     98  C         -4.5150  -10.3260  -15.1670 C.2    92  SER92       0.2643
     99  O         -4.8630  -11.5000  -15.2990 O.2    92  SER92      -0.2714
    100  CB        -2.2220   -9.5090  -15.7740 C.3    92  SER92       0.2130
    101  OG        -2.6090   -8.2110  -16.2090 O.3    92  SER92      -0.2179
    102  N         -5.3090   -9.3000  -15.4660 N.am   93  VAL93      -0.1963
    103  CA        -6.6670   -9.4970  -15.9680 C.3    93  VAL93       0.1727
    104  C         -6.6900  -10.0560  -17.3890 C.2    93  VAL93       0.2616
    105  O         -6.2030   -9.4240  -18.3300 O.2    93  VAL93      -0.2715
    106  CB        -7.4630   -8.1750  -15.9400 C.3    93  VAL93       0.0290
    107  CG1       -8.8920   -8.4100  -16.4270 C.3    93  VAL93       0.0023
    108  CG2       -7.4650   -7.6060  -14.5330 C.3    93  VAL93       0.0023
    109  N         -7.2710  -11.2440  -17.5340 N.am   94  VAL94      -0.1977
    110  CA        -7.3610  -11.9100  -18.8270 C.3    94  VAL94       0.1596
    111  C         -8.8000  -12.2960  -19.1570 C.2    94  VAL94       0.2287
    112  O         -9.0450  -13.2790  -19.8540 O.2    94  VAL94      -0.2864
    113  CB        -6.4850  -13.1810  -18.8520 C.3    94  VAL94       0.0276
    114  CG1       -5.0210  -12.8040  -18.6850 C.3    94  VAL94       0.0022
    115  CG2       -6.9150  -14.1330  -17.7410 C.3    94  VAL94       0.0022
    116  N         -6.9710   -2.2740  -12.9180 N.3   106  PRO106     -0.2116
    117  CA        -6.4930   -3.3640  -12.0610 C.3   106  PRO106      0.1372
    118  C         -5.1270   -3.8950  -12.4900 C.2   106  PRO106      0.2244
    119  O         -4.3170   -4.2750  -11.6500 O.2   106  PRO106     -0.2868
    120  CB        -7.5880   -4.4170  -12.2000 C.3   106  PRO106      0.0268
    121  CG        -8.8100   -3.5940  -12.4480 C.3   106  PRO106      0.0207
    122  CD        -8.3080   -2.5890  -13.4500 C.3   106  PRO106      0.0892
    123  N          5.7330  -10.2400  -15.9210 N.3   130  THR130     -0.1203
    124  CA         5.2470  -10.8760  -17.1360 C.3   130  THR130      0.1994
    125  C          4.3990   -9.8550  -17.8880 C.2   130  THR130      0.2619
    126  O          3.2970   -9.4970  -17.4530 O.2   130  THR130     -0.2717
    127  CB         4.3770  -12.1190  -16.8470 C.3   130  THR130      0.1784
    128  OG1        5.0980  -13.0390  -16.0160 O.3   130  THR130     -0.2211
    129  CG2        4.0020  -12.8120  -18.1600 C.3   130  THR130      0.0376
    130  N          4.9430   -9.3640  -18.9940 N.am  131  SER131     -0.1937
    131  CA         4.2530   -8.4030  -19.8440 C.3   131  SER131      0.2055
    132  C          3.7390   -9.2150  -21.0400 C.2   131  SER131      0.2643
    133  O          3.2890  -10.3500  -20.8680 O.2   131  SER131     -0.2714
    134  CB         5.2340   -7.3060  -20.2860 C.3   131  SER131      0.2130
    135  OG         4.6080   -6.3240  -21.0970 O.3   131  SER131     -0.2179
    136  N          3.8210   -8.6500  -22.2410 N.am  132  SER132     -0.1949
    137  CA         3.3600   -9.3400  -23.4430 C.3   132  SER132      0.1924
    138  C          3.8250   -8.5870  -24.6760 C.2   132  SER132      0.2314
    139  O          4.1710   -7.4050  -24.5940 O.2   132  SER132     -0.2863
    140  CB         1.8270   -9.4100  -23.4610 C.3   132  SER132      0.2116
    141  OG         1.3440   -9.8710  -24.7190 O.3   132  SER132     -0.2180
    142  N         -7.1220   -5.0200  -23.6850 N.3   176  TYR176     -0.1241
    143  CA        -6.1430   -5.8940  -23.0500 C.3   176  TYR176      0.1605
    144  C         -4.7440   -5.3560  -23.3500 C.2   176  TYR176      0.2264
    145  O         -3.9020   -5.2650  -22.4560 O.2   176  TYR176     -0.2867
    146  CB        -6.2990   -7.3260  -23.5710 C.3   176  TYR176      0.0534
    147  CG        -5.1610   -8.2640  -23.2140 C.ar  176  TYR176     -0.0201
    148  CD1       -4.2390   -8.6670  -24.1800 C.ar  176  TYR176     -0.0009
    149  CD2       -5.0090   -8.7550  -21.9170 C.ar  176  TYR176     -0.0009
    150  CE1       -3.1950   -9.5400  -23.8680 C.ar  176  TYR176      0.0417
    151  CE2       -3.9650   -9.6270  -21.5920 C.ar  176  TYR176      0.0417
    152  CZ        -3.0630  -10.0150  -22.5750 C.ar  176  TYR176      0.1957
    153  OH        -2.0240  -10.8690  -22.2630 O.3   176  TYR176     -0.2866
    154  N         -1.7890   -4.1520  -20.6530 N.3   180  LYS180     -0.1245
    155  CA        -0.4280   -4.6620  -20.5690 C.3   180  LYS180      0.1561
    156  C          0.5680   -3.5250  -20.7710 C.2   180  LYS180      0.2260
    157  O          1.5410   -3.3950  -20.0240 O.2   180  LYS180     -0.2867
    158  CB        -0.2110   -5.7520  -21.6230 C.3   180  LYS180      0.0271
    159  CG        -1.1130   -6.9710  -21.4490 C.3   180  LYS180      0.0035
    160  CD        -0.9390   -7.6140  -20.0690 C.3   180  LYS180      0.0206
    161  CE         0.4660   -8.1760  -19.8830 C.3   180  LYS180      0.1093
    162  NZ         0.6500   -8.7930  -18.5370 N.3   180  LYS180     -0.1314
    163  N          5.9920  -12.4580  -23.6820 N.3   205  PRO205     -0.2102
    164  CA         5.6620  -13.5950  -24.5440 C.3   205  PRO205      0.1504
    165  C          4.6340  -13.2430  -25.6080 C.2   205  PRO205      0.2575
    166  O          3.8710  -12.2830  -25.4510 O.2   205  PRO205     -0.2718
    167  CB         5.0710  -14.6220  -23.5720 C.3   205  PRO205      0.0282
    168  CG         5.4560  -14.1120  -22.1800 C.3   205  PRO205      0.0208
    169  CD         5.4130  -12.6270  -22.3380 C.3   205  PRO205      0.0893
    170  N          4.6370  -14.0040  -26.6990 N.am  206  ASN206     -0.1975
    171  CA         3.6080  -13.8400  -27.7120 C.3   206  ASN206      0.1688
    172  C          2.7380  -15.0730  -27.4330 C.2   206  ASN206      0.2292
    173  O          2.4850  -15.3670  -26.2660 O.2   206  ASN206     -0.2864
    174  CB         4.1740  -13.8360  -29.1390 C.3   206  ASN206      0.1181
    175  CG         3.1940  -13.2280  -30.1550 C.2   206  ASN206      0.2629
    176  OD1        3.5910  -12.8010  -31.2340 O.2   206  ASN206     -0.2716
    177  ND2        1.9160  -13.1970  -29.8060 N.am  206  ASN206     -0.0877
    178  N          1.9280  -18.3780  -26.2940 N.3   208  THR208     -0.1218
    179  CA         2.5970  -19.4580  -25.5690 C.3   208  THR208      0.1862
    180  C          1.9270  -20.8340  -25.7070 C.2   208  THR208      0.2287
    181  O          0.7770  -21.0350  -25.3100 O.2   208  THR208     -0.2866
    182  CB         2.7450  -19.0760  -24.0760 C.3   208  THR208      0.1770
    183  OG1        3.3750  -17.7920  -23.9810 O.3   208  THR208     -0.2211
    184  CG2        3.6060  -20.0890  -23.3430 C.3   208  THR208      0.0375
    185  N         -7.6750  -23.5060  -17.2400 N.3   219  SER219     -0.1202
    186  CA        -8.3350  -23.3360  -18.5280 C.3   219  SER219      0.2020
    187  C         -7.3080  -23.4410  -19.6480 C.2   219  SER219      0.2619
    188  O         -7.6320  -23.8430  -20.7650 O.2   219  SER219     -0.2717
    189  CB        -9.0670  -21.9890  -18.5830 C.3   219  SER219      0.2103
    190  OG        -8.3910  -20.9940  -17.8300 O.3   219  SER219     -0.2182
    191  N         -6.0650  -23.0800  -19.3440 N.am  220  GLY220     -0.1942
    192  CA        -5.0170  -23.1770  -20.3380 C.3   220  GLY220      0.2014
    193  C         -4.6580  -21.9130  -21.0940 C.2   220  GLY220      0.2640
    194  O         -3.6450  -21.8950  -21.7890 O.2   220  GLY220     -0.2714
    195  N         -5.4670  -20.8600  -20.9870 N.am  221  SER221     -0.1935
    196  CA        -5.1310  -19.6290  -21.6940 C.3   221  SER221      0.2055
    197  C         -4.9000  -19.9750  -23.1620 C.2   221  SER221      0.2643
    198  O         -5.6310  -20.7830  -23.7370 O.2   221  SER221     -0.2714
    199  CB        -3.8730  -18.9890  -21.0930 C.3   221  SER221      0.2130
    200  OG        -3.6540  -17.6910  -21.6240 O.3   221  SER221     -0.2179
    201  N         -3.9450  -19.2880  -23.7780 N.am  222  THR222     -0.1950
    202  CA        -3.5780  -19.5210  -25.1720 C.3   222  THR222      0.1897
    203  C         -3.5490  -20.9960  -25.5730 C.2   222  THR222      0.2313
    204  O         -4.0570  -21.3660  -26.6340 O.2   222  THR222     -0.2863
    205  CB        -2.1940  -18.9150  -25.4780 C.3   222  THR222      0.1794
    206  OG1       -1.2590  -19.3300  -24.4690 O.3   222  THR222     -0.2208
    207  CG2       -2.2760  -17.3990  -25.5080 C.3   222  THR222      0.0378
@<TRIPOS>BOND
     1   176   175    2
     2   175   177   am
     3   175   174    1
     4   174   171    1
     5   171   172    1
     6   171   170    1
     7   172   173    2
     8   170   165   am
     9   204   203    2
    10   178   179    1
    11   180   179    1
    12   180   181    2
    13   165   166    2
    14   165   164    1
    15   203   202    1
    16   179   182    1
    17   207   205    1
    18   205   202    1
    19   205   206    1
    20   202   201    1
    21   141   140    1
    22   138   139    2
    23   138   137    1
    24   164   163    1
    25   164   167    1
    26   148   150   ar
    27   148   147   ar
    28   182   183    1
    29   182   184    1
    30   150   152   ar
    31   201   197   am
    32   198   197    2
    33   142   143    1
    34   163   169    1
    35   167   168    1
    36   146   147    1
    37   146   143    1
    38   140   137    1
    39   137   136    1
    40   144   143    1
    41   144   145    2
    42   147   149   ar
    43   197   196    1
    44   152   153    1
    45   152   151   ar
    46   169   168    1
    47   136   132   am
    48   149   151   ar
    49    26    27   ar
    50    26    24   ar
    51    27    25   ar
    52   194   193    2
    53   196   199    1
    54   196   195    1
    55   200   199    1
    56   158   159    1
    57   158   155    1
    58   159   160    1
    59   135   134    1
    60   193   195   am
    61   193   192    1
    62   132   133    2
    63   132   131    1
    64    24    22   ar
    65    25    23   ar
    66   156   155    1
    67   156   157    2
    68   188   187    2
    69   154   155    1
    70   192   191    1
    71   134   131    1
    72   160   161    1
    73    34    32    1
    74   161   162    1
    75   112   111    2
    76   131   130    1
    77    22    23   ar
    78    22    21    1
    79   187   191   am
    80   187   186    1
    81   111   110    1
    82   130   125   am
    83   113   110    1
    84   113   114    1
    85   113   115    1
    86   110   109    1
    87    21    18    1
    88   189   186    1
    89   189   190    1
    90   186   185    1
    91    32    33    1
    92    32    29    1
    93   105   104    2
    94   129   127    1
    95    29    28    1
    96    29    30    1
    97   125   126    2
    98   125   124    1
    99    28    19   am
   100   109   104   am
   101    19    18    1
   102    19    20    2
   103   104   103    1
   104    18    17    1
   105   124   127    1
   106   124   123    1
   107   127   128    1
   108    30    31    2
   109    30    35   am
   110   107   106    1
   111    17    15   am
   112   101   100    1
   113   103   106    1
   114   103   102    1
   115   106   108    1
   116   100    97    1
   117    35    36    1
   118   102    98   am
   119    99    98    2
   120    98    97    1
   121    15    16    2
   122    15    14    1
   123    89    87    1
   124    86    85    2
   125    97    96    1
   126    36    37    1
   127    36    39    1
   128    14    13    1
   129    96    93   am
   130    37    38    2
   131    85    84    1
   132    85    91   am
   133    87    84    1
   134    87    88    1
   135    90    88    1
   136    84    83    1
   137   122   116    1
   138   122   121    1
   139    93    94    2
   140    93    92    1
   141     8     7    2
   142   116   117    1
   143    13     7   am
   144    92    91    1
   145    92    95    1
   146   118   117    1
   147   118   119    2
   148   121   120    1
   149     7     6    1
   150   120   117    1
   151     4     3    2
   152     6     5    1
   153     6     9    1
   154    82    81    1
   155    50    48    1
   156    12    10   am
   157     3     2    1
   158    10     9    1
   159    10    11    2
   160     2     1    1
   161    81    80    1
   162    48    49    1
   163    48    47    2
   164    47    46    1
   165    54    53    2
   166    59    58    1
   167    58    57    1
   168    57    56    1
   169    80    79    1
   170    56    55    1
   171    55    52    1
   172    53    52    1
   173    46    45    1
   174    52    51    1
   175    79    76    1
   176    45    44    1
   177    44    41    1
   178    40    41    1
   179    78    77    2
   180    76    77    1
   181    76    75    1
   182    75    69   am
   183    41    42    1
   184    74    72   ar
   185    42    43    2
   186    63    62    2
   187    69    68    1
   188    69    70    2
   189    68    67    1
   190    68    71    1
   191    72    71    1
   192    72    73   ar
   193    65    64    1
   194    62    61    1
   195    64    66    1
   196    64    61    1
   197    61    60    1
