@<TRIPOS>MOLECULE
tmp/1y1qC00.pdb
 178 171 0 0 0
SMALL
GASTEIGER

@<TRIPOS>ATOM
      1  N          4.5330   41.6120   91.7910 N.3    22  PRO22      -0.2102
      2  CA         3.1290   41.9240   92.0640 C.3    22  PRO22       0.1504
      3  C          3.1040   43.4370   92.2760 C.2    22  PRO22       0.2576
      4  O          4.1620   44.0620   92.3890 O.2    22  PRO22      -0.2718
      5  CB         2.8560   41.1520   93.3430 C.3    22  PRO22       0.0282
      6  CG         4.1540   41.2930   94.0680 C.3    22  PRO22       0.0208
      7  CD         5.1920   41.0500   92.9830 C.3    22  PRO22       0.0893
      8  N          1.9190   44.0310   92.3310 N.am   23  GLY23      -0.1943
      9  CA         1.8530   45.4710   92.5110 C.3    23  GLY23       0.2014
     10  C          1.7480   45.9060   93.9560 C.2    23  GLY23       0.2638
     11  O          2.1430   47.0190   94.3090 O.2    23  GLY23      -0.2714
     12  N          1.2160   45.0280   94.7970 N.am   24  ASP24      -0.1971
     13  CA         1.0470   45.3410   96.2090 C.3    24  ASP24       0.1709
     14  C          2.1690   44.7650   97.0650 C.2    24  ASP24       0.2293
     15  O          2.4050   43.5600   97.0660 O.2    24  ASP24      -0.2864
     16  CB        -0.3070   44.8160   96.7030 C.3    24  ASP24       0.1436
     17  CG        -0.6580   45.3090   98.1020 C.2    24  ASP24       0.3671
     18  OD1       -1.8210   45.1270   98.5200 O.co2  24  ASP24      -0.2456
     19  OD2        0.2220   45.8740   98.7860 O.co2  24  ASP24      -0.2456
     20  N          1.5920   41.7210   99.0750 N.3    27  ARG27      -0.1245
     21  CA         1.4590   40.4390   98.3820 C.3    27  ARG27       0.1563
     22  C          2.8240   39.7570   98.1850 C.2    27  ARG27       0.2260
     23  O          2.9000   38.5530   97.9420 O.2    27  ARG27      -0.2867
     24  CB         0.7870   40.6460   97.0180 C.3    27  ARG27       0.0307
     25  CG        -0.6230   40.0730   96.8920 C.3    27  ARG27       0.0489
     26  CD        -1.7020   40.9770   97.4870 C.3    27  ARG27       0.2205
     27  NE        -1.5560   41.1820   98.9260 N.pl3  27  ARG27      -0.0865
     28  CZ        -2.4740   41.7650   99.6940 C.cat  27  ARG27       0.5346
     29  NH1       -3.6080   42.1990   99.1610 N.pl3  27  ARG27       0.1354
     30  NH2       -2.2590   41.9190  100.9940 N.pl3  27  ARG27       0.1354
     31  N          4.2100   48.7150   92.8100 N.3    65  GLY65      -0.1210
     32  CA         3.3610   49.8360   93.1660 C.3    65  GLY65       0.1956
     33  C          2.3530   49.9910   92.0400 C.2    65  GLY65       0.2611
     34  O          2.3700   49.2100   91.0890 O.2    65  GLY65      -0.2717
     35  N          1.4720   50.9810   92.1370 N.am   66  ILE66      -0.1979
     36  CA         0.4770   51.2050   91.0910 C.3    66  ILE66       0.1595
     37  C          0.9800   52.1120   89.9630 C.2    66  ILE66       0.2287
     38  O          1.5220   53.1970   90.2100 O.2    66  ILE66      -0.2864
     39  CB        -0.8250   51.8340   91.6600 C.3    66  ILE66       0.0276
     40  CG1       -1.5530   50.8280   92.5640 C.3    66  ILE66       0.0022
     41  CG2       -1.7310   52.2680   90.5150 C.3    66  ILE66       0.0022
     42  CD1       -2.6950   51.4200   93.3450 C.3    66  ILE66       0.0001
     43  N          4.8940   39.2970   86.0830 N.3    88  ARG88      -0.1231
     44  CA         3.9410   40.0690   86.8570 C.3    88  ARG88       0.1694
     45  C          2.6910   39.2630   87.1470 C.2    88  ARG88       0.2592
     46  O          2.0750   38.6910   86.2480 O.2    88  ARG88      -0.2718
     47  CB         3.5160   41.3290   86.1240 C.3    88  ARG88       0.0321
     48  CG         2.4160   42.0480   86.8740 C.3    88  ARG88       0.0489
     49  CD         1.9160   43.2670   86.1660 C.3    88  ARG88       0.2205
     50  NE         1.0330   44.0180   87.0530 N.pl3  88  ARG88      -0.0865
     51  CZ         1.4180   44.5660   88.2060 C.cat  88  ARG88       0.5346
     52  NH1        2.6720   44.4540   88.6280 N.pl3  88  ARG88       0.1354
     53  NH2        0.5500   45.2450   88.9380 N.pl3  88  ARG88       0.1354
     54  N          2.3190   39.2470   88.4170 N.am   89  ILE89      -0.1966
     55  CA         1.1370   38.5500   88.8720 C.3    89  ILE89       0.1727
     56  C          0.1780   39.6250   89.3600 C.2    89  ILE89       0.2617
     57  O          0.5770   40.5170   90.1030 O.2    89  ILE89      -0.2715
     58  CB         1.4810   37.5850   90.0380 C.3    89  ILE89       0.0290
     59  CG1        0.2000   37.0640   90.6910 C.3    89  ILE89       0.0022
     60  CG2        2.3280   38.3050   91.0740 C.3    89  ILE89       0.0023
     61  CD1       -0.7730   36.4570   89.7170 C.3    89  ILE89       0.0001
     62  N         -1.0780   39.5560   88.9320 N.am   90  GLY90      -0.1940
     63  CA        -2.0480   40.5460   89.3630 C.3    90  GLY90       0.2014
     64  C         -3.4870   40.0560   89.4610 C.2    90  GLY90       0.2640
     65  O         -3.8080   38.8990   89.1550 O.2    90  GLY90      -0.2714
     66  N         -4.3550   40.9400   89.9370 N.am   91  THR91      -0.1936
     67  CA        -5.7800   40.6480   90.0470 C.3    91  THR91       0.2028
     68  C         -6.3750   41.6510   89.0800 C.2    91  THR91       0.2643
     69  O         -5.8700   42.7720   88.9580 O.2    91  THR91      -0.2714
     70  CB        -6.3300   40.9090   91.4680 C.3    91  THR91       0.1808
     71  OG1       -6.0130   42.2480   91.8700 O.3    91  THR91      -0.2208
     72  CG2       -5.7430   39.9140   92.4590 C.3    91  THR91       0.0379
     73  N         -7.4380   41.2690   88.3880 N.am   92  THR92      -0.1936
     74  CA        -8.0010   42.1830   87.4110 C.3    92  THR92       0.2028
     75  C         -9.4830   41.9870   87.1580 C.2    92  THR92       0.2642
     76  O        -10.1300   41.1350   87.7690 O.2    92  THR92      -0.2714
     77  CB        -7.2670   42.0320   86.0720 C.3    92  THR92       0.1808
     78  OG1       -7.7230   43.0220   85.1470 O.3    92  THR92      -0.2208
     79  CG2       -7.5340   40.6640   85.4970 C.3    92  THR92       0.0379
     80  N        -10.0060   42.8000   86.2480 N.am   93  GLY93      -0.1954
     81  CA       -11.4010   42.7170   85.8790 C.3    93  GLY93       0.1869
     82  C        -11.5340   42.6530   84.3680 C.2    93  GLY93       0.2309
     83  O        -11.0300   43.5210   83.6540 O.2    93  GLY93      -0.2863
     84  N         -7.2350   54.7360   86.9170 N.3   159  PHE159     -0.1241
     85  CA        -8.1370   53.6730   87.3170 C.3   159  PHE159      0.1605
     86  C         -9.5710   54.0110   86.9270 C.2   159  PHE159      0.2264
     87  O        -10.3650   53.1180   86.6600 O.2   159  PHE159     -0.2867
     88  CB        -8.0330   53.4540   88.8340 C.3   159  PHE159      0.0534
     89  CG        -8.9770   52.4120   89.3710 C.ar  159  PHE159     -0.0203
     90  CD1      -10.2880   52.7450   89.7120 C.ar  159  PHE159     -0.0042
     91  CD2       -8.5530   51.0950   89.5470 C.ar  159  PHE159     -0.0042
     92  CE1      -11.1540   51.7790   90.2220 C.ar  159  PHE159     -0.0003
     93  CE2       -9.4190   50.1250   90.0570 C.ar  159  PHE159     -0.0003
     94  CZ       -10.7130   50.4650   90.3940 C.ar  159  PHE159     -0.0000
     95  N        -10.3190   53.9630   82.1930 N.3   163  GLN163     -0.1245
     96  CA       -11.0380   52.6910   82.1340 C.3   163  GLN163      0.1566
     97  C        -12.5180   53.0050   82.0130 C.2   163  GLN163      0.2260
     98  O        -13.3880   52.1670   82.2740 O.2   163  GLN163     -0.2867
     99  CB       -10.7580   51.8680   83.3910 C.3   163  GLN163      0.0367
    100  CG        -9.3190   51.3440   83.4490 C.3   163  GLN163      0.0905
    101  CD        -9.0390   50.5380   84.7000 C.2   163  GLN163      0.2608
    102  OE1       -9.8740   49.7300   85.1320 O.2   163  GLN163     -0.2717
    103  NE2       -7.8580   50.7450   85.2890 N.am  163  GLN163     -0.0878
    104  N        -14.7140   55.1140   83.7430 N.3   165  ARG165     -0.1245
    105  CA       -15.5690   55.0060   84.9190 C.3   165  ARG165      0.1563
    106  C        -16.1810   56.3880   85.1220 C.2   165  ARG165      0.2260
    107  O        -15.4670   57.3880   85.1000 O.2   165  ARG165     -0.2867
    108  CB       -14.7620   54.5920   86.1510 C.3   165  ARG165      0.0307
    109  CG       -14.2580   53.1510   86.0970 C.3   165  ARG165      0.0489
    110  CD       -13.3220   52.8490   87.2510 C.3   165  ARG165      0.2205
    111  NE       -12.5580   51.6150   87.0550 N.pl3 165  ARG165     -0.0865
    112  CZ       -13.0100   50.3920   87.3170 C.cat 165  ARG165      0.5346
    113  NH1      -14.2360   50.2230   87.7940 N.pl3 165  ARG165      0.1354
    114  NH2      -12.2310   49.3360   87.1060 N.pl3 165  ARG165      0.1354
    115  N         -8.7740   45.2480   81.7920 N.3   192  TYR192     -0.1227
    116  CA        -8.0410   46.4650   82.1080 C.3   192  TYR192      0.1736
    117  C         -7.1090   46.1770   83.2880 C.2   192  TYR192      0.2595
    118  O         -7.4150   45.3580   84.1460 O.2   192  TYR192     -0.2718
    119  CB        -8.9950   47.5840   82.5440 C.3   192  TYR192      0.0548
    120  CG        -9.6990   48.3530   81.4550 C.ar  192  TYR192     -0.0200
    121  CD1       -8.9850   49.1410   80.5530 C.ar  192  TYR192     -0.0009
    122  CD2      -11.0920   48.3710   81.3880 C.ar  192  TYR192     -0.0009
    123  CE1       -9.6440   49.9390   79.6130 C.ar  192  TYR192      0.0417
    124  CE2      -11.7580   49.1610   80.4540 C.ar  192  TYR192      0.0417
    125  CZ       -11.0310   49.9420   79.5730 C.ar  192  TYR192      0.1957
    126  OH       -11.6950   50.7330   78.6740 O.3   192  TYR192     -0.2866
    127  N         -5.9740   46.8590   83.3160 N.am  193  GLU193     -0.1965
    128  CA        -5.0090   46.7530   84.4080 C.3   193  GLU193      0.1733
    129  C         -4.1430   47.9990   84.2360 C.2   193  GLU193      0.2616
    130  O         -4.4080   48.8030   83.3410 O.2   193  GLU193     -0.2715
    131  CB        -4.2170   45.4310   84.3550 C.3   193  GLU193      0.0429
    132  CG        -3.3230   45.2240   83.1540 C.3   193  GLU193      0.1163
    133  CD        -1.9500   45.8060   83.3620 C.2   193  GLU193      0.3649
    134  OE1       -1.2710   45.3740   84.3130 O.co2 193  GLU193     -0.2457
    135  OE2       -1.5490   46.6920   82.5770 O.co2 193  GLU193     -0.2457
    136  N         -3.1190   48.1940   85.0550 N.am  194  MET194     -0.1963
    137  CA        -2.3740   49.4430   84.9330 C.3   194  MET194      0.1736
    138  C         -0.8560   49.4020   84.8890 C.2   194  MET194      0.2616
    139  O         -0.2140   50.4310   85.0940 O.2   194  MET194     -0.2715
    140  CB        -2.8110   50.3780   86.0650 C.3   194  MET194      0.0427
    141  CG        -4.3050   50.7080   86.0540 C.3   194  MET194      0.0599
    142  SD        -4.8800   51.5400   87.5600 S.3   194  MET194     -0.1393
    143  CE        -3.9200   53.0460   87.5170 C.3   194  MET194      0.0692
    144  N         -0.2730   48.2400   84.6150 N.am  195  GLU195     -0.1977
    145  CA         1.1830   48.1600   84.5800 C.3   195  GLU195      0.1602
    146  C          1.8220   47.4350   83.3930 C.2   195  GLU195      0.2287
    147  O          2.9760   47.7180   83.0620 O.2   195  GLU195     -0.2864
    148  CB         1.7100   47.5300   85.8780 C.3   195  GLU195      0.0415
    149  CG         1.4330   48.3240   87.1490 C.3   195  GLU195      0.1163
    150  CD        -0.0080   48.1990   87.6240 C.2   195  GLU195      0.3649
    151  OE1       -0.5630   47.0800   87.5490 O.co2 195  GLU195     -0.2457
    152  OE2       -0.5790   49.2090   88.0840 O.co2 195  GLU195     -0.2457
    153  N        -11.1810   39.1180   89.2670 N.3   217  ILE217     -0.1231
    154  CA       -11.8670   39.3220   90.5350 C.3   217  ILE217      0.1692
    155  C        -13.1260   40.1680   90.3770 C.2   217  ILE217      0.2591
    156  O        -13.8130   40.4640   91.3540 O.2   217  ILE217     -0.2718
    157  CB       -10.9200   39.9790   91.5680 C.3   217  ILE217      0.0266
    158  CG1      -10.2350   41.2170   90.9750 C.3   217  ILE217      0.0019
    159  CG2       -9.8590   38.9820   91.9840 C.3   217  ILE217      0.0020
    160  CD1      -11.0280   42.5090   91.0850 C.3   217  ILE217      0.0001
    161  N        -13.4320   40.5410   89.1380 N.am  218  VAL218     -0.1980
    162  CA       -14.6040   41.3600   88.8560 C.3   218  VAL218      0.1595
    163  C        -14.8300   41.4820   87.3430 C.2   218  VAL218      0.2287
    164  O        -13.8800   41.4650   86.5580 O.2   218  VAL218     -0.2864
    165  CB       -14.4310   42.7840   89.4530 C.3   218  VAL218      0.0276
    166  CG1      -13.6690   43.6770   88.4780 C.3   218  VAL218      0.0022
    167  CG2      -15.7860   43.3820   89.7840 C.3   218  VAL218      0.0022
    168  N        -16.8730   43.9280   84.5610 N.3   220  ARG220     -0.1245
    169  CA       -17.6210   45.1640   84.3350 C.3   220  ARG220      0.1563
    170  C        -19.0270   44.9390   83.7580 C.2   220  ARG220      0.2260
    171  O        -19.9720   45.6350   84.1330 O.2   220  ARG220     -0.2867
    172  CB       -16.8250   46.0940   83.4050 C.3   220  ARG220      0.0307
    173  CG       -15.4490   46.5180   83.9370 C.3   220  ARG220      0.0489
    174  CD       -15.5630   47.5290   85.0720 C.3   220  ARG220      0.2205
    175  NE       -16.0710   48.8170   84.6060 N.pl3 220  ARG220     -0.0865
    176  CZ       -15.3520   49.7170   83.9390 C.cat 220  ARG220      0.5346
    177  NH1      -14.0770   49.4790   83.6560 N.pl3 220  ARG220      0.1354
    178  NH2      -15.9110   50.8540   83.5480 N.pl3 220  ARG220      0.1354
@<TRIPOS>BOND
     1   126   125    1
     2   125   123   ar
     3   125   124   ar
     4   123   121   ar
     5   124   122   ar
     6   121   120   ar
     7   122   120   ar
     8   120   119    1
     9   115   116    1
    10    97    96    1
    11    97    98    2
    12   116   119    1
    13   116   117    1
    14    96    95    1
    15    96    99    1
    16   135   133   ar
    17   147   146    2
    18   132   133    1
    19   132   131    1
    20   117   127   am
    21   117   118    2
    22   127   128    1
    23   130   129    2
    24   133   134   ar
    25    99   100    1
    26   146   145    1
    27   172   173    1
    28   172   169    1
    29   100   101    1
    30   178   176    1
    31    83    82    2
    32   177   176    1
    33   104   105    1
    34   170   171    2
    35   170   169    1
    36   173   174    1
    37   176   175    2
    38   129   128    1
    39   129   136   am
    40   169   168    1
    41   131   128    1
    42    82    81    1
    43   145   144    1
    44   145   148    1
    45   175   174    1
    46   144   138   am
    47   101   102    2
    48   101   103   am
    49   138   137    1
    50   138   139    2
    51   105   106    1
    52   105   108    1
    53   137   136    1
    54   137   140    1
    55   107   106    2
    56    78    77    1
    57    79    77    1
    58   148   149    1
    59    81    80    1
    60   141   140    1
    61   141   142    1
    62    77    74    1
    63    43    44    1
    64   109   108    1
    65   109   110    1
    66    47    44    1
    67    47    48    1
    68    49    48    1
    69    49    50    1
    70    80    75   am
    71    46    45    2
    72   164   163    2
    73    87    86    2
    74    44    45    1
    75    84    85    1
    76    86    85    1
    77    50    51    2
    78   111   110    1
    79   111   112    2
    80   114   112    1
    81    45    54   am
    82   149   150    1
    83    75    74    1
    84    75    76    2
    85   112   113    1
    86    85    88    1
    87   163   162    1
    88    74    73    1
    89   143   142    1
    90   151   150   ar
    91   150   152   ar
    92    51    52    1
    93    51    53    1
    94    73    68   am
    95    54    55    1
    96   166   165    1
    97    88    89    1
    98   162   161    1
    99   162   165    1
   100    55    56    1
   101    55    58    1
   102    62    56   am
   103    62    63    1
   104    69    68    2
   105    68    67    1
   106   161   155   am
   107    65    64    2
   108   153   154    1
   109    56    57    2
   110    63    64    1
   111    89    91   ar
   112    89    90   ar
   113   165   167    1
   114    64    66   am
   115    91    93   ar
   116    90    92   ar
   117    61    59    1
   118    66    67    1
   119    37    38    2
   120    37    36    1
   121    58    59    1
   122    58    60    1
   123    67    70    1
   124    93    94   ar
   125    92    94   ar
   126   155   154    1
   127   155   156    2
   128    41    39    1
   129   154   157    1
   130   158   160    1
   131   158   157    1
   132    34    33    2
   133    36    39    1
   134    36    35    1
   135    70    71    1
   136    70    72    1
   137   157   159    1
   138    39    40    1
   139     1     2    1
   140     1     7    1
   141    33    35   am
   142    33    32    1
   143     2     3    1
   144     2     5    1
   145     3     8   am
   146     3     4    2
   147     8     9    1
   148     9    10    1
   149    40    42    1
   150    31    32    1
   151     7     6    1
   152     5     6    1
   153    10    11    2
   154    10    12   am
   155    12    13    1
   156    13    16    1
   157    13    14    1
   158    16    17    1
   159    25    24    1
   160    25    26    1
   161    24    21    1
   162    14    15    2
   163    26    27    1
   164    23    22    2
   165    17    18   ar
   166    17    19   ar
   167    22    21    1
   168    21    20    1
   169    27    28    2
   170    29    28    1
   171    28    30    1
