@<TRIPOS>MOLECULE
tmp/1y1sC00.pdb
 104 99 0 0 0
SMALL
GASTEIGER

@<TRIPOS>ATOM
      1  N         48.8520   81.8340   22.4300 N.3    91  THR91      -0.1203
      2  CA        50.3070   81.9370   22.4520 C.3    91  THR91       0.1994
      3  C         50.7770   81.1600   21.2410 C.2    91  THR91       0.2619
      4  O         50.0840   80.2460   20.7940 O.2    91  THR91      -0.2717
      5  CB        50.9140   81.2870   23.7170 C.3    91  THR91       0.1784
      6  OG1       50.4960   79.9150   23.8110 O.3    91  THR91      -0.2211
      7  CG2       50.4800   82.0400   24.9610 C.3    91  THR91       0.0376
      8  N         51.9470   81.5000   20.7120 N.am   92  THR92      -0.1938
      9  CA        52.4350   80.8020   19.5320 C.3    92  THR92       0.2028
     10  C         53.9620   80.8280   19.3480 C.2    92  THR92       0.2642
     11  O         54.6550   81.6710   19.9130 O.2    92  THR92      -0.2714
     12  CB        51.7490   81.3820   18.2700 C.3    92  THR92       0.1808
     13  OG1       52.1170   80.6130   17.1190 O.3    92  THR92      -0.2208
     14  CG2       52.1400   82.8360   18.0760 C.3    92  THR92       0.0379
     15  N         54.4750   79.8810   18.5690 N.am   93  GLY93      -0.1954
     16  CA        55.8990   79.8290   18.3020 C.3    93  GLY93       0.1869
     17  C         56.1840   80.2450   16.8660 C.2    93  GLY93       0.2309
     18  O         55.6330   79.6700   15.9230 O.2    93  GLY93      -0.2863
     19  N         51.7660   69.1430   19.8750 N.3   159  PHE159     -0.1241
     20  CA        52.7210   70.1660   20.2410 C.3   159  PHE159      0.1605
     21  C         54.1280   69.7130   19.8520 C.2   159  PHE159      0.2264
     22  O         54.9660   70.5240   19.4770 O.2   159  PHE159     -0.2867
     23  CB        52.6270   70.4430   21.7470 C.3   159  PHE159      0.0534
     24  CG        53.4960   71.5730   22.2180 C.ar  159  PHE159     -0.0203
     25  CD1       54.8510   71.3620   22.5050 C.ar  159  PHE159     -0.0042
     26  CD2       52.9650   72.8560   22.3820 C.ar  159  PHE159     -0.0042
     27  CE1       55.6690   72.4040   22.9460 C.ar  159  PHE159     -0.0003
     28  CE2       53.7800   73.9190   22.8250 C.ar  159  PHE159     -0.0003
     29  CZ        55.1330   73.6850   23.1070 C.ar  159  PHE159     -0.0000
     30  N         54.8840   69.6990   15.1640 N.3   163  GLN163     -0.1245
     31  CA        55.6440   70.9320   15.0230 C.3   163  GLN163      0.1566
     32  C         57.1340   70.6100   14.8900 C.2   163  GLN163      0.2260
     33  O         58.0020   71.4530   15.1290 O.2   163  GLN163     -0.2867
     34  CB        55.3570   71.8400   16.2270 C.3   163  GLN163      0.0367
     35  CG        53.8560   72.0920   16.4210 C.3   163  GLN163      0.0905
     36  CD        53.5360   73.1850   17.4320 C.2   163  GLN163      0.2608
     37  OE1       54.3100   74.1300   17.6140 O.2   163  GLN163     -0.2717
     38  NE2       52.3750   73.0710   18.0800 N.am  163  GLN163     -0.0878
     39  N         59.3670   68.5290   16.5830 N.3   165  ARG165     -0.1245
     40  CA        60.2090   68.6280   17.7690 C.3   165  ARG165      0.1563
     41  C         60.8310   67.2620   18.0060 C.2   165  ARG165      0.2260
     42  O         60.1180   66.2630   18.1060 O.2   165  ARG165     -0.2867
     43  CB        59.3880   69.0440   18.9820 C.3   165  ARG165      0.0307
     44  CG        59.0530   70.5150   19.0070 C.3   165  ARG165      0.0489
     45  CD        57.7290   70.7470   19.7180 C.3   165  ARG165      0.2205
     46  NE        57.4310   72.1690   19.8660 N.pl3 165  ARG165     -0.0865
     47  CZ        58.0750   72.9670   20.7060 C.cat 165  ARG165      0.5346
     48  NH1       59.0440   72.4690   21.4680 N.pl3 165  ARG165      0.1354
     49  NH2       57.7610   74.2560   20.7710 N.pl3 165  ARG165      0.1354
     50  N         53.4120   78.3720   14.5380 N.3   192  TYR192     -0.1227
     51  CA        52.7750   77.1320   14.9240 C.3   192  TYR192      0.1736
     52  C         51.8500   77.4300   16.0980 C.2   192  TYR192      0.2595
     53  O         52.2150   78.1770   17.0040 O.2   192  TYR192     -0.2718
     54  CB        53.8160   76.1210   15.3850 C.3   192  TYR192      0.0548
     55  CG        54.4730   75.2950   14.3010 C.ar  192  TYR192     -0.0200
     56  CD1       53.7100   74.5460   13.4000 C.ar  192  TYR192     -0.0009
     57  CD2       55.8640   75.1890   14.2380 C.ar  192  TYR192     -0.0009
     58  CE1       54.3210   73.7070   12.4720 C.ar  192  TYR192      0.0417
     59  CE2       56.4790   74.3600   13.3210 C.ar  192  TYR192      0.0417
     60  CZ        55.7080   73.6180   12.4420 C.ar  192  TYR192      0.1957
     61  OH        56.3390   72.7690   11.5610 O.3   192  TYR192     -0.2866
     62  N         50.6470   76.8640   16.0650 N.am  193  GLU193     -0.1965
     63  CA        49.6820   77.0040   17.1540 C.3   193  GLU193      0.1733
     64  C         48.7720   75.7840   17.0230 C.2   193  GLU193      0.2616
     65  O         48.9940   74.9540   16.1440 O.2   193  GLU193     -0.2715
     66  CB        48.9250   78.3440   17.0900 C.3   193  GLU193      0.0429
     67  CG        47.9450   78.5260   15.9670 C.3   193  GLU193      0.1163
     68  CD        46.5950   77.9320   16.2890 C.2   193  GLU193      0.3649
     69  OE1       46.0220   78.2940   17.3370 O.co2 193  GLU193     -0.2457
     70  OE2       46.1010   77.1050   15.4940 O.co2 193  GLU193     -0.2457
     71  N         47.7460   75.6500   17.8500 N.am  194  MET194     -0.1977
     72  CA        46.9750   74.4150   17.7670 C.3   194  MET194      0.1605
     73  C         45.4530   74.3960   17.6490 C.2   194  MET194      0.2287
     74  O         44.8580   73.3230   17.7740 O.2   194  MET194     -0.2864
     75  CB        47.3980   73.5240   18.9390 C.3   194  MET194      0.0413
     76  CG        48.8930   73.2100   18.9600 C.3   194  MET194      0.0598
     77  SD        49.4280   72.3330   20.4580 S.3   194  MET194     -0.1393
     78  CE        48.5880   70.7350   20.2590 C.3   194  MET194      0.0692
     79  N         55.7690   83.5040   22.0090 N.3   217  ILE217     -0.1231
     80  CA        56.4620   83.2170   23.2540 C.3   217  ILE217      0.1692
     81  C         57.8110   82.5580   22.9800 C.2   217  ILE217      0.2591
     82  O         58.7070   82.6020   23.8260 O.2   217  ILE217     -0.2718
     83  CB        55.6170   82.3070   24.1620 C.3   217  ILE217      0.0266
     84  CG1       55.3890   80.9460   23.5000 C.3   217  ILE217      0.0019
     85  CG2       54.2850   82.9720   24.4470 C.3   217  ILE217      0.0020
     86  CD1       54.7090   79.9360   24.4060 C.3   217  ILE217      0.0001
     87  N         57.9580   81.9610   21.7960 N.am  218  VAL218     -0.1980
     88  CA        59.2130   81.3070   21.4240 C.3   218  VAL218      0.1595
     89  C         59.4820   81.3720   19.9170 C.2   218  VAL218      0.2287
     90  O         58.5520   81.5040   19.1170 O.2   218  VAL218     -0.2864
     91  CB        59.2220   79.8170   21.8770 C.3   218  VAL218      0.0276
     92  CG1       58.2130   79.0150   21.0800 C.3   218  VAL218      0.0022
     93  CG2       60.6190   79.2310   21.7300 C.3   218  VAL218      0.0022
     94  N         61.3130   79.1510   17.0650 N.3   220  ARG220     -0.1245
     95  CA        61.9300   77.8800   16.7090 C.3   220  ARG220      0.1563
     96  C         63.3270   77.9480   16.1060 C.2   220  ARG220      0.2260
     97  O         64.0050   76.9230   16.0040 O.2   220  ARG220     -0.2867
     98  CB        61.0040   77.1000   15.7720 C.3   220  ARG220      0.0307
     99  CG        59.6530   76.7350   16.3970 C.3   220  ARG220      0.0489
    100  CD        59.8400   75.9260   17.6730 C.3   220  ARG220      0.2205
    101  NE        60.5320   74.6700   17.4060 N.pl3 220  ARG220     -0.0865
    102  CZ        59.9600   73.6040   16.8530 C.cat 220  ARG220      0.5346
    103  NH1       58.6740   73.6340   16.5150 N.pl3 220  ARG220      0.1354
    104  NH2       60.6770   72.5120   16.6230 N.pl3 220  ARG220      0.1354
@<TRIPOS>BOND
     1    61    60    1
     2    60    58   ar
     3    60    59   ar
     4    58    56   ar
     5    59    57   ar
     6    56    55   ar
     7    57    55   ar
     8    55    54    1
     9    50    51    1
    10    32    31    1
    11    32    33    2
    12    51    54    1
    13    51    52    1
    14    31    30    1
    15    31    34    1
    16    70    68   ar
    17    98    99    1
    18    98    95    1
    19    18    17    2
    20    67    68    1
    21    67    66    1
    22    97    96    2
    23    62    52   am
    24    62    63    1
    25    52    53    2
    26    96    95    1
    27    65    64    2
    28    34    35    1
    29    68    69   ar
    30    99   100    1
    31    35    36    1
    32   103   102    1
    33    39    40    1
    34   104   102    1
    35    95    94    1
    36   102   101    2
    37    17    16    1
    38    64    63    1
    39    64    71   am
    40    66    63    1
    41    13    12    1
    42   101   100    1
    43    36    37    2
    44    36    38   am
    45    73    72    1
    46    73    74    2
    47    72    71    1
    48    72    75    1
    49    40    41    1
    50    40    43    1
    51    41    42    2
    52    14    12    1
    53    12     9    1
    54    16    15    1
    55    15    10   am
    56    75    76    1
    57    76    77    1
    58    43    44    1
    59    44    45    1
    60    90    89    2
    61    10     9    1
    62    10    11    2
    63    22    21    2
    64     9     8    1
    65    45    46    1
    66    21    20    1
    67    46    47    2
    68    19    20    1
    69    89    88    1
    70    20    23    1
    71    78    77    1
    72    47    49    1
    73    47    48    1
    74     8     3   am
    75     4     3    2
    76    92    91    1
    77     3     2    1
    78    88    87    1
    79    88    91    1
    80    93    91    1
    81    23    24    1
    82    87    81   am
    83    79    80    1
    84    24    26   ar
    85    24    25   ar
    86    26    28   ar
    87     1     2    1
    88     2     5    1
    89    25    27   ar
    90    28    29   ar
    91    27    29   ar
    92    81    80    1
    93    81    82    2
    94    80    83    1
    95    84    83    1
    96    84    86    1
    97     5     6    1
    98     5     7    1
    99    83    85    1
