@<TRIPOS>MOLECULE
tmp/1y1zA00.pdb
 116 114 0 0 0
SMALL
GASTEIGER

@<TRIPOS>ATOM
      1  N         21.7170   35.7060   14.1450 N.3    83  PHE83      -0.1241
      2  CA        22.5640   34.6200   13.6510 C.3    83  PHE83       0.1605
      3  C         24.0320   34.9680   13.8800 C.2    83  PHE83       0.2264
      4  O         24.7830   34.1750   14.4430 O.2    83  PHE83      -0.2867
      5  CB        22.3100   34.3550   12.1620 C.3    83  PHE83       0.0534
      6  CG        21.0380   33.5990   11.8970 C.ar   83  PHE83      -0.0203
      7  CD1       19.8190   34.2660   11.8530 C.ar   83  PHE83      -0.0042
      8  CD2       21.0590   32.2160   11.7460 C.ar   83  PHE83      -0.0042
      9  CE1       18.6300   33.5620   11.6710 C.ar   83  PHE83      -0.0003
     10  CE2       19.8720   31.5010   11.5620 C.ar   83  PHE83      -0.0003
     11  CZ        18.6610   32.1830   11.5280 C.ar   83  PHE83      -0.0000
     12  N         19.9370   26.5850   11.5220 N.3   115  PRO115     -0.2102
     13  CA        20.1490   26.7550   10.0840 C.3   115  PRO115      0.1504
     14  C         21.1750   27.8800    9.8980 C.2   115  PRO115      0.2576
     15  O         20.8510   28.9960    9.4870 O.2   115  PRO115     -0.2718
     16  CB        18.7550   27.1050    9.5740 C.3   115  PRO115      0.0282
     17  CG        18.1470   27.8350   10.7270 C.3   115  PRO115      0.0208
     18  CD        18.5880   27.0290   11.9180 C.3   115  PRO115      0.0893
     19  N         22.4190   27.5450   10.2200 N.am  116  LEU116     -0.1966
     20  CA        23.5500   28.4660   10.1640 C.3   116  LEU116      0.1728
     21  C         24.3060   28.3830    8.8430 C.2   116  LEU116      0.2616
     22  O         24.8800   27.3400    8.5110 O.2   116  LEU116     -0.2715
     23  CB        24.5010   28.1350   11.3060 C.3   116  LEU116      0.0311
     24  CG        25.7040   29.0460   11.5110 C.3   116  LEU116      0.0022
     25  CD1       25.2320   30.3760   12.0920 C.3   116  LEU116      0.0001
     26  CD2       26.6890   28.3640   12.4530 C.3   116  LEU116      0.0001
     27  N         24.3180   29.4880    8.1070 N.am  117  THR117     -0.1951
     28  CA        25.0020   29.5330    6.8220 C.3   117  THR117      0.1897
     29  C         26.5180   29.4680    6.9260 C.2   117  THR117      0.2313
     30  O         27.1440   30.2040    7.6830 O.2   117  THR117     -0.2863
     31  CB        24.6300   30.8050    6.0510 C.3   117  THR117      0.1794
     32  OG1       23.2400   30.7580    5.7090 O.3   117  THR117     -0.2208
     33  CG2       25.4560   30.9300    4.7680 C.3   117  THR117      0.0378
     34  N         32.7770   33.7310    8.3380 N.3   122  ARG122     -0.1245
     35  CA        32.6100   33.0310    9.6020 C.3   122  ARG122      0.1563
     36  C         33.6600   31.9420    9.7930 C.2   122  ARG122      0.2260
     37  O         34.1140   31.6950   10.9080 O.2   122  ARG122     -0.2867
     38  CB        31.2160   32.4030    9.6720 C.3   122  ARG122      0.0307
     39  CG        30.1090   33.4180    9.8700 C.3   122  ARG122      0.0489
     40  CD        28.7440   32.7980    9.6470 C.3   122  ARG122      0.2205
     41  NE        27.7030   33.7710    9.9500 N.pl3 122  ARG122     -0.0865
     42  CZ        26.4040   33.5620    9.7620 C.cat 122  ARG122      0.5346
     43  NH1       25.9880   32.4070    9.2610 N.pl3 122  ARG122      0.1354
     44  NH2       25.5210   34.4950   10.1050 N.pl3 122  ARG122      0.1354
     45  N         19.9000   31.7260   -1.3480 N.3   137  LEU137     -0.1245
     46  CA        19.0480   32.8560   -1.0210 C.3   137  LEU137      0.1561
     47  C         17.9880   33.0210   -2.0870 C.2   137  LEU137      0.2260
     48  O         18.2270   32.7130   -3.2490 O.2   137  LEU137     -0.2867
     49  CB        19.8470   34.1570   -0.9590 C.3   137  LEU137      0.0270
     50  CG        20.8700   34.3540    0.1590 C.3   137  LEU137      0.0019
     51  CD1       21.4700   35.7490    0.0540 C.3   137  LEU137      0.0001
     52  CD2       20.1980   34.1760    1.5140 C.3   137  LEU137      0.0001
     53  N         22.7280   39.0380    9.7920 N.3   170  SER170     -0.1202
     54  CA        22.6510   37.6840    9.2600 C.3   170  SER170      0.2020
     55  C         23.6400   37.5730    8.1060 C.2   170  SER170      0.2619
     56  O         24.3070   38.5450    7.7670 O.2   170  SER170     -0.2717
     57  CB        21.2450   37.4010    8.7340 C.3   170  SER170      0.2103
     58  OG        20.9920   38.1350    7.5490 O.3   170  SER170     -0.2182
     59  N         23.7200   36.3960    7.4840 N.am  171  SER171     -0.1937
     60  CA        24.6370   36.2210    6.3690 C.3   171  SER171      0.2055
     61  C         24.2500   37.0460    5.1360 C.2   171  SER171      0.2642
     62  O         25.0690   37.2210    4.2370 O.2   171  SER171     -0.2714
     63  CB        24.7480   34.7410    5.9900 C.3   171  SER171      0.2130
     64  OG        25.7290   34.5560    4.9770 O.3   171  SER171     -0.2179
     65  N         23.0180   37.5500    5.0760 N.am  172  VAL172     -0.1977
     66  CA        22.6070   38.3630    3.9270 C.3   172  VAL172      0.1596
     67  C         23.4300   39.6530    3.9030 C.2   172  VAL172      0.2287
     68  O         23.7780   40.1650    2.8390 O.2   172  VAL172     -0.2864
     69  CB        21.0980   38.6970    3.9730 C.3   172  VAL172      0.0276
     70  CG1       20.7020   39.5480    2.7670 C.3   172  VAL172      0.0022
     71  CG2       20.3010   37.4020    3.9830 C.3   172  VAL172      0.0022
     72  N         26.9800   38.7320    2.6410 N.3   175  TYR175     -0.1241
     73  CA        26.9650   38.5450    1.1940 C.3   175  TYR175      0.1605
     74  C         26.8810   39.8410    0.4030 C.2   175  TYR175      0.2264
     75  O         27.5910   40.0200   -0.5870 O.2   175  TYR175     -0.2867
     76  CB        25.7900   37.6540    0.7950 C.3   175  TYR175      0.0534
     77  CG        25.9890   36.1830    1.0770 C.ar  175  TYR175     -0.0201
     78  CD1       24.9110   35.3760    1.4290 C.ar  175  TYR175     -0.0009
     79  CD2       27.2450   35.5870    0.9470 C.ar  175  TYR175     -0.0009
     80  CE1       25.0730   34.0120    1.6420 C.ar  175  TYR175      0.0417
     81  CE2       27.4170   34.2180    1.1550 C.ar  175  TYR175      0.0417
     82  CZ        26.3240   33.4400    1.5020 C.ar  175  TYR175      0.1957
     83  OH        26.4700   32.0880    1.6830 O.3   175  TYR175     -0.2866
     84  N         15.9070   36.2870    1.8890 N.3   214  TRP214     -0.1227
     85  CA        16.3070   35.3680    2.9640 C.3   214  TRP214      0.1737
     86  C         16.6440   33.9590    2.4610 C.2   214  TRP214      0.2595
     87  O         16.6130   33.6890    1.2630 O.2   214  TRP214     -0.2718
     88  CB        15.1580   35.3030    3.9720 C.3   214  TRP214      0.0564
     89  CG        15.4990   34.7840    5.3340 C.ar  214  TRP214      0.0003
     90  CD1       14.9360   33.7030    5.9620 C.ar  214  TRP214      0.0946
     91  CD2       16.3760   35.3910    6.2920 C.ar  214  TRP214      0.0152
     92  NE1       15.4000   33.6100    7.2510 N.ar  214  TRP214     -0.2442
     93  CE2       16.2860   34.6300    7.4820 C.ar  214  TRP214      0.0810
     94  CE3       17.2240   36.5070    6.2630 C.ar  214  TRP214      0.0012
     95  CZ2       17.0120   34.9480    8.6340 C.ar  214  TRP214      0.0191
     96  CZ3       17.9520   36.8300    7.4160 C.ar  214  TRP214      0.0001
     97  CH2       17.8370   36.0470    8.5860 C.ar  214  TRP214      0.0015
     98  N         16.9680   33.0580    3.3860 N.am  215  ASP215     -0.1974
     99  CA        17.2980   31.6750    3.0500 C.3   215  ASP215      0.1709
    100  C         16.1560   30.9720    2.3380 C.2   215  ASP215      0.2293
    101  O         15.0140   30.9870    2.8090 O.2   215  ASP215     -0.2864
    102  CB        17.5990   30.8580    4.3070 C.3   215  ASP215      0.1436
    103  CG        18.9120   31.2000    4.9320 C.2   215  ASP215      0.3671
    104  OD1       19.8810   31.4810    4.1940 O.co2 215  ASP215     -0.2456
    105  OD2       18.9730   31.1540    6.1760 O.co2 215  ASP215     -0.2456
    106  N         23.9800   24.8970    5.1180 N.3   241  PHE241     -0.1241
    107  CA        23.8850   25.1210    6.5570 C.3   241  PHE241      0.1605
    108  C         24.8100   24.1030    7.2020 C.2   241  PHE241      0.2264
    109  O         24.8680   22.9450    6.7840 O.2   241  PHE241     -0.2867
    110  CB        22.4810   24.8230    7.0880 C.3   241  PHE241      0.0534
    111  CG        21.4160   25.7800    6.6300 C.ar  241  PHE241     -0.0203
    112  CD1       20.0950   25.3540    6.5700 C.ar  241  PHE241     -0.0042
    113  CD2       21.7090   27.1060    6.3230 C.ar  241  PHE241     -0.0042
    114  CE1       19.0760   26.2330    6.2130 C.ar  241  PHE241     -0.0003
    115  CE2       20.6910   27.9980    5.9660 C.ar  241  PHE241     -0.0003
    116  CZ        19.3750   27.5570    5.9130 C.ar  241  PHE241     -0.0000
@<TRIPOS>BOND
     1    48    47    2
     2    47    46    1
     3    45    46    1
     4    46    49    1
     5    49    50    1
     6    75    74    2
     7    51    50    1
     8    50    52    1
     9    74    73    1
    10    76    77    1
    11    76    73    1
    12    79    77   ar
    13    79    81   ar
    14    77    78   ar
    15    81    82   ar
    16    73    72    1
    17    87    86    2
    18    78    80   ar
    19    82    80   ar
    20    82    83    1
    21    84    85    1
    22   100   101    2
    23   100    99    1
    24    86    85    1
    25    86    98   am
    26    70    69    1
    27    68    67    2
    28    85    88    1
    29    99    98    1
    30    99   102    1
    31    67    66    1
    32    66    69    1
    33    66    65    1
    34    88    89    1
    35    69    71    1
    36   104   103   ar
    37    62    61    2
    38   102   103    1
    39    33    31    1
    40   103   105   ar
    41    64    63    1
    42    65    61   am
    43   106   107    1
    44    61    60    1
    45    89    90   ar
    46    89    91   ar
    47    32    31    1
    48   116   115   ar
    49   116   114   ar
    50    90    92   ar
    51   115   113   ar
    52    63    60    1
    53    31    28    1
    54   114   112   ar
    55    94    91   ar
    56    94    96   ar
    57    91    93   ar
    58   113   111   ar
    59    60    59    1
    60   107   110    1
    61   107   108    1
    62   112   111   ar
    63   111   110    1
    64   109   108    2
    65    28    29    1
    66    28    27    1
    67    29    30    2
    68    92    93   ar
    69    96    97   ar
    70    93    95   ar
    71    59    55   am
    72    58    57    1
    73    56    55    2
    74    55    54    1
    75    27    21   am
    76    34    35    1
    77    22    21    2
    78    97    95   ar
    79    57    54    1
    80    21    20    1
    81    54    53    1
    82    43    42    1
    83    15    14    2
    84    16    13    1
    85    16    17    1
    86    35    38    1
    87    35    36    1
    88    40    39    1
    89    40    41    1
    90    38    39    1
    91    42    41    2
    92    42    44    1
    93    36    37    2
    94    14    13    1
    95    14    19   am
    96    13    12    1
    97    20    19    1
    98    20    23    1
    99    17    18    1
   100    23    24    1
   101    24    25    1
   102    24    26    1
   103    12    18    1
   104    11    10   ar
   105    11     9   ar
   106    10     8   ar
   107     9     7   ar
   108     8     6   ar
   109     7     6   ar
   110     6     5    1
   111     5     2    1
   112     2     3    1
   113     2     1    1
   114     3     4    2
