@<TRIPOS>MOLECULE
tmp/1y20A00.pdb
 96 95 0 0 0
SMALL
GASTEIGER

@<TRIPOS>ATOM
      1  N         21.6550   35.6890   14.1070 N.3    88  PHE88      -0.1241
      2  CA        22.4900   34.6060   13.5810 C.3    88  PHE88       0.1605
      3  C         23.9620   34.9150   13.8140 C.2    88  PHE88       0.2264
      4  O         24.6800   34.1050   14.3940 O.2    88  PHE88      -0.2867
      5  CB        22.2240   34.3800   12.0950 C.3    88  PHE88       0.0534
      6  CG        20.9670   33.6000   11.8220 C.ar   88  PHE88      -0.0203
      7  CD1       19.7290   34.2360   11.7800 C.ar   88  PHE88      -0.0042
      8  CD2       21.0210   32.2190   11.6490 C.ar   88  PHE88      -0.0042
      9  CE1       18.5560   33.5060   11.5720 C.ar   88  PHE88      -0.0003
     10  CE2       19.8580   31.4790   11.4400 C.ar   88  PHE88      -0.0003
     11  CZ        18.6240   32.1220   11.4020 C.ar   88  PHE88      -0.0000
     12  N         19.9500   26.5900   11.4570 N.3   120  PRO120     -0.2102
     13  CA        20.1260   26.7260   10.0040 C.3   120  PRO120      0.1504
     14  C         21.1710   27.8390    9.8060 C.2   120  PRO120      0.2576
     15  O         20.8570   28.9570    9.3920 O.2   120  PRO120     -0.2718
     16  CB        18.7180   27.0870    9.5110 C.3   120  PRO120      0.0282
     17  CG        18.1210   27.8140   10.6850 C.3   120  PRO120      0.0208
     18  CD        18.5910   27.0000   11.8690 C.3   120  PRO120      0.0893
     19  N         22.4110   27.4960   10.1510 N.am  121  LEU121     -0.1966
     20  CA        23.5530   28.4020   10.1050 C.3   121  LEU121      0.1728
     21  C         24.3270   28.3040    8.7980 C.2   121  LEU121      0.2616
     22  O         24.8960   27.2600    8.4730 O.2   121  LEU121     -0.2715
     23  CB        24.4820   28.0810   11.2740 C.3   121  LEU121      0.0311
     24  CG        25.6940   28.9810   11.4930 C.3   121  LEU121      0.0022
     25  CD1       25.2340   30.3360   12.0280 C.3   121  LEU121      0.0001
     26  CD2       26.6370   28.3150   12.4770 C.3   121  LEU121      0.0001
     27  N         24.3650   29.4070    8.0670 N.am  122  THR122     -0.1951
     28  CA        25.0650   29.4400    6.7940 C.3   122  THR122      0.1897
     29  C         26.5840   29.3920    6.8960 C.2   122  THR122      0.2313
     30  O         27.2080   30.1520    7.6370 O.2   122  THR122     -0.2863
     31  CB        24.6760   30.6880    6.0020 C.3   122  THR122      0.1794
     32  OG1       23.2850   30.6130    5.6760 O.3   122  THR122     -0.2208
     33  CG2       25.4740   30.7890    4.7110 C.3   122  THR122      0.0378
     34  N         32.7160   33.7310    8.3270 N.3   127  ARG127     -0.1245
     35  CA        32.5670   32.9990    9.5770 C.3   127  ARG127      0.1563
     36  C         33.6060   31.8920    9.7380 C.2   127  ARG127      0.2260
     37  O         34.0740   31.6240   10.8450 O.2   127  ARG127     -0.2867
     38  CB        31.1650   32.3880    9.6620 C.3   127  ARG127      0.0307
     39  CG        30.0710   33.4120    9.8580 C.3   127  ARG127      0.0489
     40  CD        28.7040   32.7930    9.6350 C.3   127  ARG127      0.2205
     41  NE        27.6440   33.7380    9.9530 N.pl3 127  ARG127     -0.0865
     42  CZ        26.3570   33.5220    9.7090 C.cat 127  ARG127      0.5346
     43  NH1       25.9770   32.3880    9.1310 N.pl3 127  ARG127      0.1354
     44  NH2       25.4500   34.4240   10.0650 N.pl3 127  ARG127      0.1354
     45  N         22.6770   38.9200    9.8170 N.3   175  SER175     -0.1202
     46  CA        22.6010   37.5610    9.2960 C.3   175  SER175      0.2020
     47  C         23.5920   37.4430    8.1480 C.2   175  SER175      0.2619
     48  O         24.2640   38.4140    7.7920 O.2   175  SER175     -0.2717
     49  CB        21.2030   37.2750    8.7600 C.3   175  SER175      0.2103
     50  OG        20.9490   38.0430    7.5960 O.3   175  SER175     -0.2182
     51  N         23.6710   36.2570    7.5530 N.am  176  SER176     -0.1937
     52  CA        24.5840   36.0470    6.4390 C.3   176  SER176      0.2055
     53  C         24.2180   36.8810    5.2070 C.2   176  SER176      0.2642
     54  O         25.0680   37.1160    4.3560 O.2   176  SER176     -0.2714
     55  CB        24.6510   34.5600    6.0750 C.3   176  SER176      0.2130
     56  OG        23.4110   34.0840    5.5980 O.3   176  SER176     -0.2179
     57  N         22.9670   37.3300    5.0950 N.am  177  VAL177     -0.1977
     58  CA        22.5880   38.1640    3.9460 C.3   177  VAL177      0.1596
     59  C         23.3810   39.4740    3.9690 C.2   177  VAL177      0.2287
     60  O         23.7660   39.9950    2.9240 O.2   177  VAL177     -0.2864
     61  CB        21.0780   38.4920    3.9350 C.3   177  VAL177      0.0276
     62  CG1       20.7440   39.4090    2.7620 C.3   177  VAL177      0.0022
     63  CG2       20.2900   37.2150    3.8300 C.3   177  VAL177      0.0022
     64  N         15.9610   36.1450    1.7410 N.3   219  TRP219     -0.1227
     65  CA        16.3170   35.2260    2.8200 C.3   219  TRP219      0.1737
     66  C         16.6530   33.8190    2.3120 C.2   219  TRP219      0.2595
     67  O         16.6310   33.5450    1.1110 O.2   219  TRP219     -0.2718
     68  CB        15.1290   35.1630    3.7880 C.3   219  TRP219      0.0564
     69  CG        15.4160   34.6130    5.1460 C.ar  219  TRP219      0.0003
     70  CD1       14.7670   33.5830    5.7670 C.ar  219  TRP219      0.0946
     71  CD2       16.3520   35.1290    6.0970 C.ar  219  TRP219      0.0152
     72  NE1       15.2330   33.4340    7.0490 N.ar  219  TRP219     -0.2442
     73  CE2       16.2080   34.3690    7.2780 C.ar  219  TRP219      0.0810
     74  CE3       17.2990   36.1650    6.0680 C.ar  219  TRP219      0.0012
     75  CZ2       16.9720   34.6140    8.4230 C.ar  219  TRP219      0.0191
     76  CZ3       18.0580   36.4080    7.2050 C.ar  219  TRP219      0.0001
     77  CH2       17.8880   35.6360    8.3670 C.ar  219  TRP219      0.0015
     78  N         16.9530   32.9300    3.2510 N.am  220  ASP220     -0.1974
     79  CA        17.2900   31.5410    2.9550 C.3   220  ASP220      0.1709
     80  C         16.1560   30.8220    2.2450 C.2   220  ASP220      0.2293
     81  O         15.0090   30.8410    2.7120 O.2   220  ASP220     -0.2864
     82  CB        17.5600   30.7670    4.2410 C.3   220  ASP220      0.1436
     83  CG        18.8760   31.1160    4.8730 C.2   220  ASP220      0.3671
     84  OD1       19.8110   31.4960    4.1410 O.co2 220  ASP220     -0.2456
     85  OD2       18.9710   30.9760    6.1070 O.co2 220  ASP220     -0.2456
     86  N         24.0570   24.8040    5.0940 N.3   246  PHE246     -0.1241
     87  CA        23.9230   25.0480    6.5220 C.3   246  PHE246      0.1605
     88  C         24.8450   24.0330    7.1880 C.2   246  PHE246      0.2264
     89  O         24.8860   22.8600    6.7930 O.2   246  PHE246     -0.2867
     90  CB        22.5090   24.7440    7.0310 C.3   246  PHE246      0.0534
     91  CG        21.4510   25.7040    6.5840 C.ar  246  PHE246     -0.0203
     92  CD1       20.1270   25.2790    6.5530 C.ar  246  PHE246     -0.0042
     93  CD2       21.7420   27.0260    6.2510 C.ar  246  PHE246     -0.0042
     94  CE1       19.1060   26.1400    6.2010 C.ar  246  PHE246     -0.0003
     95  CE2       20.7190   27.9070    5.8950 C.ar  246  PHE246     -0.0003
     96  CZ        19.3960   27.4610    5.8710 C.ar  246  PHE246     -0.0000
@<TRIPOS>BOND
     1    67    66    2
     2    64    65    1
     3    80    81    2
     4    80    79    1
     5    66    65    1
     6    66    78   am
     7    62    61    1
     8    65    68    1
     9    60    59    2
    10    79    78    1
    11    79    82    1
    12    68    69    1
    13    63    61    1
    14    61    58    1
    15    58    59    1
    16    58    57    1
    17    84    83   ar
    18    82    83    1
    19    54    53    2
    20    33    31    1
    21    83    85   ar
    22    86    87    1
    23    57    53   am
    24    69    70   ar
    25    69    71   ar
    26    53    52    1
    27    56    55    1
    28    32    31    1
    29    70    72   ar
    30    96    95   ar
    31    96    94   ar
    32    95    93   ar
    33    31    28    1
    34    74    71   ar
    35    74    76   ar
    36    55    52    1
    37    71    73   ar
    38    94    92   ar
    39    93    91   ar
    40    52    51    1
    41    87    90    1
    42    87    88    1
    43    92    91   ar
    44    91    90    1
    45    89    88    2
    46    28    29    1
    47    28    27    1
    48    29    30    2
    49    72    73   ar
    50    76    77   ar
    51    73    75   ar
    52    51    47   am
    53    50    49    1
    54    48    47    2
    55    27    21   am
    56    47    46    1
    57    34    35    1
    58    77    75   ar
    59    22    21    2
    60    49    46    1
    61    21    20    1
    62    43    42    1
    63    46    45    1
    64    15    14    2
    65    16    13    1
    66    16    17    1
    67    35    38    1
    68    35    36    1
    69    40    39    1
    70    40    41    1
    71    38    39    1
    72    42    41    2
    73    42    44    1
    74    36    37    2
    75    14    13    1
    76    14    19   am
    77    13    12    1
    78    20    19    1
    79    20    23    1
    80    17    18    1
    81    23    24    1
    82    11    10   ar
    83    11     9   ar
    84    10     8   ar
    85    12    18    1
    86    24    25    1
    87    24    26    1
    88     9     7   ar
    89     8     6   ar
    90     7     6   ar
    91     6     5    1
    92     5     2    1
    93     2     3    1
    94     2     1    1
    95     3     4    2
