@<TRIPOS>MOLECULE
tmp/1y28A00.pdb
 211 202 0 0 0
SMALL
GASTEIGER

@<TRIPOS>ATOM
      1  N         53.2320   58.4850   42.7590 N.3     6  ILE6       -0.1245
      2  CA        52.6630   59.7050   42.2190 C.3     6  ILE6        0.1561
      3  C         51.1790   59.7640   42.5700 C.2     6  ILE6        0.2260
      4  O         50.5150   58.7270   42.6590 O.2     6  ILE6       -0.2867
      5  CB        52.8400   59.7290   40.6730 C.3     6  ILE6        0.0252
      6  CG1       54.3350   59.7160   40.3350 C.3     6  ILE6        0.0019
      7  CG2       52.1730   60.9600   40.0730 C.3     6  ILE6        0.0019
      8  CD1       54.6240   59.3470   38.9120 C.3     6  ILE6        0.0001
      9  N         47.6100   61.8300   41.4220 N.3     8  ILE8       -0.1245
     10  CA        46.9770   62.7510   40.4880 C.3     8  ILE8        0.1561
     11  C         45.5120   62.9340   40.8380 C.2     8  ILE8        0.2260
     12  O         44.9470   62.1500   41.6030 O.2     8  ILE8       -0.2867
     13  CB        47.0250   62.2380   39.0250 C.3     8  ILE8        0.0252
     14  CG1       46.2350   60.9290   38.9090 C.3     8  ILE8        0.0019
     15  CG2       48.4630   62.0720   38.5720 C.3     8  ILE8        0.0019
     16  CD1       46.0930   60.4200   37.4890 C.3     8  ILE8        0.0001
     17  N         62.0920   59.6990   37.3280 N.3    25  PHE25      -0.1241
     18  CA        61.6790   60.4770   36.1640 C.3    25  PHE25       0.1605
     19  C         62.5150   61.7000   35.8150 C.2    25  PHE25       0.2264
     20  O         62.4320   62.2030   34.6980 O.2    25  PHE25      -0.2867
     21  CB        60.2140   60.8700   36.3150 C.3    25  PHE25       0.0534
     22  CG        59.2730   59.7060   36.2450 C.ar   25  PHE25      -0.0203
     23  CD1       58.9300   59.1450   35.0160 C.ar   25  PHE25      -0.0042
     24  CD2       58.7470   59.1520   37.4050 C.ar   25  PHE25      -0.0042
     25  CE1       58.0730   58.0440   34.9410 C.ar   25  PHE25      -0.0003
     26  CE2       57.8890   58.0500   37.3470 C.ar   25  PHE25      -0.0003
     27  CZ        57.5520   57.4950   36.1070 C.ar   25  PHE25      -0.0000
     28  N         49.9300   64.0800   34.2050 N.3    37  VAL37      -0.1245
     29  CA        50.7460   62.9000   34.3970 C.3    37  VAL37       0.1561
     30  C         51.2760   62.4050   33.0550 C.2    37  VAL37       0.2260
     31  O         52.3070   61.7380   32.9930 O.2    37  VAL37      -0.2867
     32  CB        49.9290   61.8020   35.1050 C.3    37  VAL37       0.0252
     33  CG1       48.7700   61.3680   34.2260 C.3    37  VAL37       0.0019
     34  CG2       50.8280   60.6340   35.4740 C.3    37  VAL37       0.0019
     35  N         54.9470   61.9560   31.7510 N.3    40  LEU40      -0.1231
     36  CA        55.8240   60.8640   32.1670 C.3    40  LEU40       0.1693
     37  C         55.7880   59.6490   31.2430 C.2    40  LEU40       0.2591
     38  O         56.2970   58.5890   31.6020 O.2    40  LEU40      -0.2718
     39  CB        55.4510   60.4080   33.5770 C.3    40  LEU40       0.0284
     40  CG        55.4620   61.4540   34.6930 C.3    40  LEU40       0.0019
     41  CD1       54.8660   60.8550   35.9620 C.3    40  LEU40       0.0001
     42  CD2       56.8860   61.9360   34.9340 C.3    40  LEU40       0.0001
     43  N         55.2060   59.8050   30.0580 N.am   41  MET41      -0.1979
     44  CA        55.0760   58.7010   29.1150 C.3    41  MET41       0.1605
     45  C         55.2090   59.1700   27.6720 C.2    41  MET41       0.2287
     46  O         54.8520   60.2930   27.3490 O.2    41  MET41      -0.2864
     47  CB        53.7100   58.0510   29.3020 C.3    41  MET41       0.0413
     48  CG        52.5600   59.0070   29.0420 C.3    41  MET41       0.0598
     49  SD        50.9590   58.4020   29.6170 S.3    41  MET41      -0.1393
     50  CE        51.1230   58.7460   31.3950 C.3    41  MET41       0.0692
     51  N         50.5090   56.7550   24.2270 N.3    45  ASP45      -0.1239
     52  CA        49.8320   56.8280   25.5170 C.3    45  ASP45       0.1674
     53  C         49.6490   58.2780   25.9580 C.2    45  ASP45       0.2266
     54  O         48.5650   58.6790   26.3660 O.2    45  ASP45      -0.2867
     55  CB        50.6130   56.0710   26.5970 C.3    45  ASP45       0.1410
     56  CG        50.4140   54.5640   26.5210 C.2    45  ASP45       0.3668
     57  OD1       49.3470   54.1280   26.0320 O.co2  45  ASP45      -0.2456
     58  OD2       51.3180   53.8210   26.9750 O.co2  45  ASP45      -0.2456
     59  N         46.1890   59.4270   27.3250 N.3    49  HIS49      -0.1241
     60  CA        46.0110   59.2410   28.7630 C.3    49  HIS49       0.1621
     61  C         44.7590   59.8600   29.3790 C.2    49  HIS49       0.2264
     62  O         44.1270   59.2230   30.2150 O.2    49  HIS49      -0.2867
     63  CB        47.2600   59.6740   29.5450 C.3    49  HIS49       0.0745
     64  CG        47.3820   59.0030   30.8800 C.ar   49  HIS49       0.0817
     65  ND1       46.6620   59.4060   31.9850 N.ar   49  HIS49      -0.2268
     66  CD2       48.0630   57.8950   31.2620 C.ar   49  HIS49       0.1154
     67  CE1       46.8930   58.5750   32.9880 C.ar   49  HIS49       0.1986
     68  NE2       47.7390   57.6490   32.5750 N.ar   49  HIS49      -0.2212
     69  N         41.9150   57.7090   28.8250 N.3    52  TYR52      -0.1227
     70  CA        41.9840   56.4750   29.5970 C.3    52  TYR52       0.1736
     71  C         41.3110   56.7320   30.9420 C.2    52  TYR52       0.2595
     72  O         40.4900   55.9440   31.4000 O.2    52  TYR52      -0.2718
     73  CB        43.4270   56.0590   29.8650 C.3    52  TYR52       0.0548
     74  CG        44.2810   55.7390   28.6610 C.ar   52  TYR52      -0.0200
     75  CD1       43.7370   55.2020   27.4930 C.ar   52  TYR52      -0.0009
     76  CD2       45.6660   55.8870   28.7320 C.ar   52  TYR52      -0.0009
     77  CE1       44.5670   54.8140   26.4250 C.ar   52  TYR52       0.0417
     78  CE2       46.4880   55.5030   27.6880 C.ar   52  TYR52       0.0417
     79  CZ        45.9420   54.9670   26.5420 C.ar   52  TYR52       0.1957
     80  OH        46.8030   54.5700   25.5460 O.3    52  TYR52      -0.2866
     81  N         41.6770   57.8410   31.5790 N.am   53  ILE53      -0.1980
     82  CA        41.1050   58.2140   32.8760 C.3    53  ILE53       0.1595
     83  C         39.6080   58.4830   32.7120 C.2    53  ILE53       0.2287
     84  O         38.7890   58.0120   33.4990 O.2    53  ILE53      -0.2864
     85  CB        41.7730   59.4920   33.4330 C.3    53  ILE53       0.0276
     86  CG1       43.2340   59.2060   33.7860 C.3    53  ILE53       0.0022
     87  CG2       41.0010   60.0100   34.6480 C.3    53  ILE53       0.0022
     88  CD1       43.9810   60.4140   34.2920 C.3    53  ILE53       0.0001
     89  N         37.5800   57.4570   30.3020 N.3    55  ARG55      -0.1231
     90  CA        36.8690   56.2290   29.9840 C.3    55  ARG55       0.1694
     91  C         36.5480   55.4560   31.2600 C.2    55  ARG55       0.2592
     92  O         35.4480   54.9200   31.4220 O.2    55  ARG55      -0.2718
     93  CB        37.7180   55.3530   29.0610 C.3    55  ARG55       0.0321
     94  CG        36.9710   54.1690   28.4640 C.3    55  ARG55       0.0489
     95  CD        37.9230   53.0450   28.0510 C.3    55  ARG55       0.2205
     96  NE        37.8140   51.8870   28.9400 N.pl3  55  ARG55      -0.0865
     97  CZ        38.1480   51.8830   30.2300 C.cat  55  ARG55       0.5346
     98  NH1       38.6260   52.9780   30.8090 N.pl3  55  ARG55       0.1354
     99  NH2       37.9960   50.7800   30.9480 N.pl3  55  ARG55       0.1354
    100  N         37.5130   55.3990   32.1700 N.am   56  TYR56      -0.1976
    101  CA        37.3200   54.6740   33.4160 C.3    56  TYR56       0.1639
    102  C         36.3020   55.3340   34.3380 C.2    56  TYR56       0.2290
    103  O         35.4940   54.6510   34.9640 O.2    56  TYR56      -0.2864
    104  CB        38.6430   54.5300   34.1650 C.3    56  TYR56       0.0560
    105  CG        38.4590   53.9360   35.5380 C.ar   56  TYR56      -0.0198
    106  CD1       37.9830   52.6360   35.6940 C.ar   56  TYR56      -0.0009
    107  CD2       38.7060   54.6910   36.6810 C.ar   56  TYR56      -0.0009
    108  CE1       37.7520   52.1050   36.9530 C.ar   56  TYR56       0.0417
    109  CE2       38.4770   54.1720   37.9470 C.ar   56  TYR56       0.0417
    110  CZ        37.9990   52.8790   38.0780 C.ar   56  TYR56       0.1957
    111  OH        37.7580   52.3630   39.3300 O.3    56  TYR56      -0.2866
    112  N         37.9150   49.1230   35.2250 N.3    62  PRO62      -0.2102
    113  CA        39.3790   49.1670   35.2390 C.3    62  PRO62       0.1504
    114  C         40.1140   48.2590   34.2760 C.2    62  PRO62       0.2576
    115  O         39.6430   47.1810   33.9300 O.2    62  PRO62      -0.2718
    116  CB        39.7090   48.8190   36.6800 C.3    62  PRO62       0.0282
    117  CG        38.6760   47.7980   36.9820 C.3    62  PRO62       0.0208
    118  CD        37.4160   48.4490   36.4360 C.3    62  PRO62       0.0893
    119  N         41.2910   48.7180   33.8660 N.am   63  HIS63      -0.1962
    120  CA        42.1630   47.9790   32.9680 C.3    63  HIS63       0.1787
    121  C         43.5330   47.8240   33.6250 C.2    63  HIS63       0.2620
    122  O         44.3240   46.9610   33.2440 O.2    63  HIS63      -0.2715
    123  CB        42.2860   48.7060   31.6340 C.3    63  HIS63       0.0785
    124  CG        41.0620   48.6010   30.7780 C.ar   63  HIS63       0.0821
    125  ND1       40.9380   49.2530   29.5720 N.ar   63  HIS63      -0.2267
    126  CD2       39.9210   47.8920   30.9390 C.ar   63  HIS63       0.1154
    127  CE1       39.7740   48.9510   29.0260 C.ar   63  HIS63       0.1986
    128  NE2       39.1380   48.1250   29.8350 N.ar   63  HIS63      -0.2212
    129  N         43.8160   48.6700   34.6100 N.am   64  ILE64      -0.1963
    130  CA        45.0770   48.5770   35.3330 C.3    64  ILE64       0.1727
    131  C         44.8100   48.5220   36.8290 C.2    64  ILE64       0.2616
    132  O         45.4010   47.7110   37.5380 O.2    64  ILE64      -0.2715
    133  CB        46.0300   49.7580   35.0260 C.3    64  ILE64       0.0290
    134  CG1       46.5420   49.6430   33.5860 C.3    64  ILE64       0.0022
    135  CG2       47.2170   49.7450   35.9990 C.3    64  ILE64       0.0023
    136  CD1       47.6170   50.6420   33.2120 C.3    64  ILE64       0.0001
    137  N         43.9150   49.3830   37.3010 N.am   65  ILE65      -0.1977
    138  CA        43.5710   49.4270   38.7140 C.3    65  ILE65       0.1596
    139  C         43.2010   48.0330   39.2150 C.2    65  ILE65       0.2287
    140  O         42.3840   47.3440   38.6040 O.2    65  ILE65      -0.2864
    141  CB        42.3860   50.3660   38.9620 C.3    65  ILE65       0.0276
    142  CG1       42.7690   51.8000   38.5990 C.3    65  ILE65       0.0022
    143  CG2       41.9550   50.2800   40.4090 C.3    65  ILE65       0.0022
    144  CD1       41.6470   52.8030   38.8230 C.3    65  ILE65       0.0001
    145  N         54.5180   48.8650   31.5880 N.3    71  VAL71      -0.1231
    146  CA        54.4770   49.8250   30.4850 C.3    71  VAL71       0.1692
    147  C         55.7680   50.6150   30.3200 C.2    71  VAL71       0.2592
    148  O         56.7200   50.4530   31.0830 O.2    71  VAL71      -0.2718
    149  CB        53.3140   50.8330   30.6780 C.3    71  VAL71       0.0266
    150  CG1       52.0020   50.1070   30.7120 C.3    71  VAL71       0.0020
    151  CG2       53.4980   51.5930   31.9620 C.3    71  VAL71       0.0020
    152  N         55.7710   51.4890   29.3210 N.am   72  THR72      -0.1953
    153  CA        56.9240   52.3170   29.0220 C.3    72  THR72       0.1897
    154  C         56.7760   53.7140   29.5890 C.2    72  THR72       0.2313
    155  O         55.8060   54.4190   29.2910 O.2    72  THR72      -0.2863
    156  CB        57.1270   52.4660   27.5190 C.3    72  THR72       0.1794
    157  OG1       57.2230   51.1680   26.9180 O.3    72  THR72      -0.2208
    158  CG2       58.3960   53.2640   27.2440 C.3    72  THR72       0.0378
    159  N         58.5230   49.7340   32.9870 N.3    83  MET83      -0.1245
    160  CA        58.1740   49.9170   34.3790 C.3    83  MET83       0.1570
    161  C         56.8650   49.2280   34.6910 C.2    83  MET83       0.2261
    162  O         55.9910   49.1050   33.8410 O.2    83  MET83      -0.2867
    163  CB        58.0280   51.4090   34.6960 C.3    83  MET83       0.0387
    164  CG        57.0030   52.1070   33.8090 C.3    83  MET83       0.0595
    165  SD        56.5830   53.8060   34.2810 S.3    83  MET83      -0.1393
    166  CE        55.0480   53.5470   35.1580 C.3    83  MET83       0.0692
    167  N         53.3890   49.2750   36.7620 N.3    85  LEU85      -0.1245
    168  CA        52.5300   50.2970   37.3470 C.3    85  LEU85       0.1561
    169  C         51.3320   49.7150   38.0690 C.2    85  LEU85       0.2260
    170  O         50.6430   48.8510   37.5330 O.2    85  LEU85      -0.2867
    171  CB        52.0390   51.2460   36.2490 C.3    85  LEU85       0.0270
    172  CG        50.9760   52.2960   36.5890 C.3    85  LEU85       0.0019
    173  CD1       51.5570   53.4000   37.4730 C.3    85  LEU85       0.0001
    174  CD2       50.4590   52.9040   35.3040 C.3    85  LEU85       0.0001
    175  N         47.8760   50.9810   40.3190 N.3    87  ILE87      -0.1245
    176  CA        47.0600   52.1530   40.5710 C.3    87  ILE87       0.1561
    177  C         46.0090   51.9530   41.6470 C.2    87  ILE87       0.2260
    178  O         45.1870   51.0420   41.5730 O.2    87  ILE87      -0.2867
    179  CB        46.3580   52.5960   39.2870 C.3    87  ILE87       0.0252
    180  CG1       47.3980   52.8740   38.2120 C.3    87  ILE87       0.0019
    181  CG2       45.5210   53.8370   39.5400 C.3    87  ILE87       0.0019
    182  CD1       46.7980   53.1170   36.8840 C.3    87  ILE87       0.0001
    183  N         43.9760   59.5460   42.2630 N.3    98  PHE98      -0.1227
    184  CA        44.5440   58.2560   41.9240 C.3    98  PHE98       0.1736
    185  C         45.9940   58.2130   42.3610 C.2    98  PHE98       0.2596
    186  O         46.7280   59.1930   42.2140 O.2    98  PHE98      -0.2718
    187  CB        44.4250   58.0140   40.4180 C.3    98  PHE98       0.0547
    188  CG        43.0060   57.8410   39.9420 C.ar   98  PHE98      -0.0202
    189  CD1       42.3190   56.6510   40.1750 C.ar   98  PHE98      -0.0042
    190  CD2       42.3440   58.8750   39.2920 C.ar   98  PHE98      -0.0042
    191  CE1       40.9920   56.5030   39.7670 C.ar   98  PHE98      -0.0003
    192  CE2       41.0220   58.7330   38.8840 C.ar   98  PHE98      -0.0003
    193  CZ        40.3470   57.5470   39.1220 C.ar   98  PHE98      -0.0000
    194  N         46.3940   57.0770   42.9200 N.am   99  THR99      -0.1939
    195  CA        47.7550   56.8910   43.3890 C.3    99  THR99       0.2028
    196  C         48.4650   55.8790   42.5160 C.2    99  THR99       0.2642
    197  O         47.9760   54.7730   42.3240 O.2    99  THR99      -0.2714
    198  CB        47.7800   56.3900   44.8450 C.3    99  THR99       0.1808
    199  OG1       47.3160   57.4280   45.7150 O.3    99  THR99      -0.2208
    200  CG2       49.1860   56.0120   45.2530 C.3    99  THR99       0.0379
    201  N         49.6180   56.2670   41.9860 N.am  100  GLY100     -0.1954
    202  CA        50.3820   55.3750   41.1380 C.3   100  GLY100      0.1869
    203  C         51.7160   54.9860   41.7470 C.2   100  GLY100      0.2309
    204  O         52.4640   55.8280   42.2540 O.2   100  GLY100     -0.2863
    205  N         55.2220   53.1850   40.8510 N.3   102  VAL102     -0.1245
    206  CA        56.0750   52.7870   39.7540 C.3   102  VAL102      0.1561
    207  C         57.2890   51.9920   40.1890 C.2   102  VAL102      0.2260
    208  O         57.9730   52.3590   41.1350 O.2   102  VAL102     -0.2867
    209  CB        56.5480   54.0230   38.9760 C.3   102  VAL102      0.0252
    210  CG1       57.3960   53.6060   37.7890 C.3   102  VAL102      0.0019
    211  CG2       55.3520   54.8260   38.5210 C.3   102  VAL102      0.0019
@<TRIPOS>BOND
     1    51    52    1
     2    52    53    1
     3    52    55    1
     4    80    79    1
     5    53    54    2
     6    57    56   ar
     7    77    79   ar
     8    77    75   ar
     9    56    55    1
    10    56    58   ar
    11    79    78   ar
    12   157   156    1
    13   158   156    1
    14    59    60    1
    15    46    45    2
    16    75    74   ar
    17   156   153    1
    18    45    44    1
    19    78    76   ar
    20    95    94    1
    21    95    96    1
    22    94    93    1
    23    74    76   ar
    24    74    73    1
    25    60    61    1
    26    60    63    1
    27    69    70    1
    28    96    97    2
    29   153   152    1
    30   153   154    1
    31   127   125   ar
    32   127   128   ar
    33    48    47    1
    34    48    49    1
    35    93    90    1
    36    44    47    1
    37    44    43    1
    38   155   154    2
    39   152   147   am
    40    61    62    2
    41    63    64    1
    42   125   124   ar
    43    70    73    1
    44    70    71    1
    45    49    50    1
    46   128   126   ar
    47    90    89    1
    48    90    91    1
    49    43    37   am
    50    97    98    1
    51    97    99    1
    52   147   146    1
    53   147   148    2
    54   146   149    1
    55   146   145    1
    56   149   150    1
    57   149   151    1
    58   124   126   ar
    59   124   123    1
    60    64    66   ar
    61    64    65   ar
    62    71    72    2
    63    71    81   am
    64    37    38    2
    65    37    36    1
    66    91    92    2
    67    91   100   am
    68    66    68   ar
    69    81    82    1
    70   123   120    1
    71    35    36    1
    72    65    67   ar
    73    36    39    1
    74   100   101    1
    75    68    67   ar
    76    83    82    1
    77    83    84    2
    78    82    85    1
    79   120   121    1
    80   120   119    1
    81   159   160    1
    82    31    30    2
    83    30    29    1
    84   136   134    1
    85   122   121    2
    86   101   104    1
    87   101   102    1
    88    85    86    1
    89    85    87    1
    90    39    40    1
    91   134   133    1
    92   121   129   am
    93    86    88    1
    94   164   165    1
    95   164   163    1
    96   162   161    2
    97   119   114   am
    98   115   114    2
    99   104   105    1
   100    28    29    1
   101    33    32    1
   102   114   113    1
   103   165   166    1
   104   102   103    2
   105   160   161    1
   106   160   163    1
   107    29    32    1
   108   129   130    1
   109    40    42    1
   110    40    41    1
   111    20    19    2
   112    25    23   ar
   113    25    27   ar
   114    23    22   ar
   115   133   130    1
   116   133   135    1
   117    32    34    1
   118   112   113    1
   119   112   118    1
   120   113   116    1
   121   174   172    1
   122   130   131    1
   123   105   106   ar
   124   105   107   ar
   125   106   108   ar
   126    19    18    1
   127    27    26   ar
   128    18    21    1
   129    18    17    1
   130    22    21    1
   131    22    24   ar
   132   171   172    1
   133   171   168    1
   134   118   117    1
   135   172   173    1
   136   116   117    1
   137   107   109   ar
   138   167   168    1
   139   131   137   am
   140   131   132    2
   141   182   180    1
   142   108   110   ar
   143   137   138    1
   144    26    24   ar
   145   168   169    1
   146    16    14    1
   147   170   169    2
   148   210   209    1
   149   109   110   ar
   150   110   111    1
   151   180   179    1
   152   211   209    1
   153    15    13    1
   154   142   144    1
   155   142   141    1
   156   140   139    2
   157   138   141    1
   158   138   139    1
   159   192   193   ar
   160   192   190   ar
   161    14    13    1
   162     8     6    1
   163   141   143    1
   164   209   206    1
   165    13    10    1
   166   193   191   ar
   167   179   181    1
   168   179   176    1
   169   190   188   ar
   170   206   207    1
   171   206   205    1
   172   191   189   ar
   173   188   189   ar
   174   188   187    1
   175     7     5    1
   176   207   208    2
   177   175   176    1
   178     6     5    1
   179   187   184    1
   180    10    11    1
   181    10     9    1
   182   176   177    1
   183     5     2    1
   184    11    12    2
   185   202   203    1
   186   202   201    1
   187   178   177    2
   188   203   204    2
   189   184   183    1
   190   184   185    1
   191   201   196   am
   192   186   185    2
   193     2     3    1
   194     2     1    1
   195   197   196    2
   196   185   194   am
   197   196   195    1
   198     3     4    2
   199   194   195    1
   200   195   198    1
   201   198   200    1
   202   198   199    1
