@<TRIPOS>MOLECULE
tmp/1y2bB00.pdb
 141 138 0 0 0
SMALL
GASTEIGER

@<TRIPOS>ATOM
      1  N          3.6240   46.2120   59.4250 N.3    74  TYR74      -0.1227
      2  CA         4.8540   45.4440   59.2470 C.3    74  TYR74       0.1736
      3  C          5.8040   46.0470   58.2040 C.2    74  TYR74       0.2595
      4  O          6.9660   46.3280   58.5100 O.2    74  TYR74      -0.2718
      5  CB         4.5310   43.9860   58.8860 C.3    74  TYR74       0.0548
      6  CG         5.7780   43.1470   58.7680 C.ar   74  TYR74      -0.0200
      7  CD1        6.2600   42.4110   59.8500 C.ar   74  TYR74      -0.0009
      8  CD2        6.4900   43.1050   57.5730 C.ar   74  TYR74      -0.0009
      9  CE1        7.4170   41.6630   59.7430 C.ar   74  TYR74       0.0417
     10  CE2        7.6510   42.3610   57.4530 C.ar   74  TYR74       0.0417
     11  CZ         8.1070   41.6340   58.5350 C.ar   74  TYR74       0.1957
     12  OH         9.2730   40.9030   58.3920 O.3    74  TYR74      -0.2866
     13  N          5.3180   46.2400   56.9780 N.am   75  HIS75      -0.1975
     14  CA         6.1650   46.7030   55.8640 C.3    75  HIS75       0.1656
     15  C          6.3790   48.2040   55.8740 C.2    75  HIS75       0.2291
     16  O          5.9780   48.9220   54.9510 O.2    75  HIS75      -0.2864
     17  CB         5.5860   46.2380   54.5200 C.3    75  HIS75       0.0771
     18  CG         5.6570   44.7590   54.3240 C.ar   75  HIS75       0.0820
     19  ND1        4.5720   43.9260   54.4960 N.ar   75  HIS75      -0.2267
     20  CD2        6.6970   43.9570   53.9960 C.ar   75  HIS75       0.1154
     21  CE1        4.9400   42.6780   54.2660 C.ar   75  HIS75       0.1986
     22  NE2        6.2260   42.6680   53.9710 N.ar   75  HIS75      -0.2212
     23  N          8.6020   36.6380   47.0490 N.3   188  MET188     -0.1245
     24  CA         8.4590   35.2850   47.5950 C.3   188  MET188      0.1570
     25  C          8.1890   34.2140   46.5420 C.2   188  MET188      0.2261
     26  O          8.4710   33.0390   46.7730 O.2   188  MET188     -0.2867
     27  CB         7.3650   35.2230   48.6770 C.3   188  MET188      0.0387
     28  CG         7.8360   35.5530   50.0810 C.3   188  MET188      0.0595
     29  SD         9.2640   34.5820   50.6700 S.3   188  MET188     -0.1393
     30  CE         8.6410   32.9510   50.6000 C.3   188  MET188      0.0692
     31  N         15.5260   39.4610   55.0730 N.3   229  ASP229     -0.1225
     32  CA        14.1010   39.7590   54.9610 C.3   229  ASP229      0.1805
     33  C         13.2760   38.7380   55.7650 C.2   229  ASP229      0.2597
     34  O         12.2660   39.0790   56.3750 O.2   229  ASP229     -0.2718
     35  CB        13.7260   39.7310   53.4770 C.3   229  ASP229      0.1424
     36  CG        12.4120   40.3980   53.1630 C.2   229  ASP229      0.3668
     37  OD1       12.0170   41.3900   53.8270 O.co2 229  ASP229     -0.2456
     38  OD2       11.7260   39.9820   52.2080 O.co2 229  ASP229     -0.2456
     39  N         13.7260   37.4840   55.7660 N.am  230  LEU230     -0.1979
     40  CA        13.0540   36.3900   56.4770 C.3   230  LEU230      0.1596
     41  C         13.7910   36.0250   57.7730 C.2   230  LEU230      0.2287
     42  O         13.8130   34.8580   58.1850 O.2   230  LEU230     -0.2864
     43  CB        12.9210   35.1650   55.5620 C.3   230  LEU230      0.0297
     44  CG        12.0430   35.3380   54.3220 C.3   230  LEU230      0.0022
     45  CD1       11.9780   34.0270   53.5600 C.3   230  LEU230      0.0001
     46  CD2       10.6390   35.8390   54.6650 C.3   230  LEU230      0.0001
     47  N         13.1270   37.4270   60.9400 N.3   232  ASN232     -0.1226
     48  CA        12.4030   37.6590   62.2000 C.3   232  ASN232      0.1770
     49  C         12.3520   36.4350   63.1210 C.2   232  ASN232      0.2439
     50  O         12.5630   36.5710   64.3230 O.2   232  ASN232     -0.2733
     51  CB        10.9520   38.1230   62.0070 C.3   232  ASN232      0.1168
     52  CG        10.7900   39.4100   61.2010 C.2   232  ASN232      0.2627
     53  OD1        9.6980   39.6440   60.6700 O.2   232  ASN232     -0.2716
     54  ND2       11.8160   40.2500   61.1340 N.am  232  ASN232     -0.0877
     55  N         12.0180   35.2470   62.6080 N.am  233  PRO233     -0.2729
     56  CA        11.9610   34.0670   63.4820 C.3   233  PRO233      0.1401
     57  C         13.3080   33.6000   64.0470 C.2   233  PRO233      0.2269
     58  O         13.3010   32.7210   64.9160 O.2   233  PRO233     -0.2865
     59  CB        11.3280   32.9990   62.5830 C.3   233  PRO233      0.0296
     60  CG        10.6560   33.7750   61.5080 C.3   233  PRO233      0.0237
     61  CD        11.5900   34.9070   61.2360 C.3   233  PRO233      0.0939
     62  N         10.9310   38.7380   67.8490 N.3   240  TYR240     -0.1241
     63  CA        10.1220   37.8960   66.9600 C.3   240  TYR240      0.1605
     64  C          8.6280   38.0690   67.2330 C.2   240  TYR240      0.2264
     65  O          7.8520   38.2800   66.3000 O.2   240  TYR240     -0.2867
     66  CB        10.5680   36.4360   67.1030 C.3   240  TYR240      0.0534
     67  CG         9.8330   35.3980   66.2700 C.ar  240  TYR240     -0.0201
     68  CD1        9.1280   35.7350   65.1110 C.ar  240  TYR240     -0.0009
     69  CD2        9.8750   34.0550   66.6370 C.ar  240  TYR240     -0.0009
     70  CE1        8.4660   34.7660   64.3690 C.ar  240  TYR240      0.0417
     71  CE2        9.2260   33.0840   65.8950 C.ar  240  TYR240      0.0417
     72  CZ         8.5270   33.4380   64.7700 C.ar  240  TYR240      0.1957
     73  OH         7.8750   32.4520   64.0530 O.3   240  TYR240     -0.2866
     74  N          7.2970   41.2810   65.7760 N.3   243  TRP243     -0.1227
     75  CA         7.1830   41.1790   64.3220 C.3   243  TRP243      0.1737
     76  C          5.9540   40.3580   63.9430 C.2   243  TRP243      0.2596
     77  O          5.2530   40.7060   63.0010 O.2   243  TRP243     -0.2718
     78  CB         8.4460   40.5660   63.7030 C.3   243  TRP243      0.0564
     79  CG         9.6460   41.4710   63.7420 C.ar  243  TRP243      0.0003
     80  CD1       10.8360   41.2140   64.3500 C.ar  243  TRP243      0.0946
     81  CD2        9.7730   42.7710   63.1420 C.ar  243  TRP243      0.0152
     82  NE1       11.6950   42.2720   64.1750 N.ar  243  TRP243     -0.2442
     83  CE2       11.0700   43.2430   63.4380 C.ar  243  TRP243      0.0810
     84  CE3        8.9170   43.5890   62.3930 C.ar  243  TRP243      0.0012
     85  CZ2       11.5290   44.4930   63.0110 C.ar  243  TRP243      0.0191
     86  CZ3        9.3840   44.8350   61.9640 C.ar  243  TRP243      0.0001
     87  CH2       10.6680   45.2690   62.2840 C.ar  243  TRP243      0.0015
     88  N          5.6900   39.2750   64.6680 N.am  244  THR244     -0.1953
     89  CA         4.5030   38.4580   64.4040 C.3   244  THR244      0.1897
     90  C          3.2280   39.2580   64.6450 C.2   244  THR244      0.2313
     91  O          2.3120   39.2150   63.8310 O.2   244  THR244     -0.2863
     92  CB         4.5250   37.1780   65.2520 C.3   244  THR244      0.1794
     93  OG1        5.6890   36.4170   64.9110 O.3   244  THR244     -0.2208
     94  CG2        3.3410   36.2580   64.9210 C.3   244  THR244      0.0378
     95  N          2.8660   41.5910   61.5110 N.3   247  ILE247     -0.1245
     96  CA         2.4460   41.0010   60.2370 C.3   247  ILE247      0.1561
     97  C          1.0050   40.5060   60.3350 C.2   247  ILE247      0.2260
     98  O          0.2680   40.6100   59.3740 O.2   247  ILE247     -0.2867
     99  CB         3.4090   39.9000   59.7220 C.3   247  ILE247      0.0252
    100  CG1        3.1280   39.5940   58.2410 C.3   247  ILE247      0.0019
    101  CG2        3.2830   38.6290   60.5280 C.3   247  ILE247      0.0019
    102  CD1        3.4370   40.7330   57.2970 C.3   247  ILE247      0.0001
    103  N         -1.9040   41.5600   57.8030 N.3   251  PHE251     -0.1241
    104  CA        -2.6420   40.4940   57.1090 C.3   251  PHE251      0.1605
    105  C         -4.1490   40.5800   57.3880 C.2   251  PHE251      0.2264
    106  O         -4.9580   40.4390   56.4740 O.2   251  PHE251     -0.2867
    107  CB        -2.1410   39.1000   57.5190 C.3   251  PHE251      0.0534
    108  CG        -0.8280   38.6810   56.8870 C.ar  251  PHE251     -0.0203
    109  CD1       -0.1610   39.4760   55.9520 C.ar  251  PHE251     -0.0042
    110  CD2       -0.2620   37.4620   57.2330 C.ar  251  PHE251     -0.0042
    111  CE1        1.0450   39.0560   55.3790 C.ar  251  PHE251     -0.0003
    112  CE2        0.9390   37.0410   56.6650 C.ar  251  PHE251     -0.0003
    113  CZ         1.5900   37.8400   55.7400 C.ar  251  PHE251     -0.0000
    114  N         -4.0610   33.1820   56.4400 N.3   268  MET268     -0.1245
    115  CA        -3.5300   34.0230   57.5270 C.3   268  MET268      0.1570
    116  C         -4.1550   35.4270   57.6170 C.2   268  MET268      0.2261
    117  O         -3.7610   36.2150   58.4770 O.2   268  MET268     -0.2867
    118  CB        -1.9910   34.1410   57.4540 C.3   268  MET268      0.0387
    119  CG        -1.2350   32.8350   57.6920 C.3   268  MET268      0.0595
    120  SD         0.5590   33.0060   57.4990 S.3   268  MET268     -0.1393
    121  CE         0.9910   34.0310   58.9030 C.3   268  MET268      0.0692
    122  N          2.8810   30.2140   62.3580 N.3   280  GLN280     -0.1245
    123  CA         4.3060   30.5000   62.5380 C.3   280  GLN280      0.1566
    124  C          5.1160   29.2080   62.4420 C.2   280  GLN280      0.2260
    125  O          6.1710   29.1830   61.8080 O.2   280  GLN280     -0.2867
    126  CB         4.5750   31.2210   63.8670 C.3   280  GLN280      0.0367
    127  CG         4.2840   32.7230   63.8250 C.3   280  GLN280      0.0905
    128  CD         4.8890   33.4080   62.6120 C.2   280  GLN280      0.2608
    129  OE1        6.1020   33.4100   62.4390 O.2   280  GLN280     -0.2717
    130  NE2        4.0340   33.9650   61.7480 N.am  280  GLN280     -0.0878
    131  N          5.2900   28.3560   58.7850 N.3   283  PHE283     -0.1241
    132  CA         6.1800   29.2280   58.0330 C.3   283  PHE283      0.1605
    133  C          7.6350   28.8650   58.3110 C.2   283  PHE283      0.2264
    134  O          8.4440   28.8520   57.3920 O.2   283  PHE283     -0.2867
    135  CB         5.9190   30.7040   58.3280 C.3   283  PHE283      0.0534
    136  CG         6.4910   31.6300   57.2930 C.ar  283  PHE283     -0.0203
    137  CD1        6.1340   31.5000   55.9530 C.ar  283  PHE283     -0.0042
    138  CD2        7.3830   32.6280   57.6520 C.ar  283  PHE283     -0.0042
    139  CE1        6.6610   32.3520   54.9940 C.ar  283  PHE283     -0.0003
    140  CE2        7.9120   33.4850   56.6950 C.ar  283  PHE283     -0.0003
    141  CZ         7.5490   33.3460   55.3660 C.ar  283  PHE283     -0.0000
@<TRIPOS>BOND
     1    25    26    2
     2    25    24    1
     3    23    24    1
     4    24    27    1
     5    27    28    1
     6    28    29    1
     7    30    29    1
     8    38    36   ar
     9    36    35    1
    10    36    37   ar
    11    35    32    1
    12    45    44    1
    13    22    20   ar
    14    22    21   ar
    15    20    18   ar
    16    21    19   ar
    17    44    46    1
    18    44    43    1
    19    18    19   ar
    20    18    17    1
    21    17    14    1
    22    16    15    2
    23    32    31    1
    24    32    33    1
    25   139   141   ar
    26   139   137   ar
    27   141   140   ar
    28   111   113   ar
    29   111   109   ar
    30    43    40    1
    31   113   112   ar
    32    33    39   am
    33    33    34    2
    34    39    40    1
    35    14    15    1
    36    14    13    1
    37   109   108   ar
    38   137   136   ar
    39   114   115    1
    40   106   105    2
    41    40    41    1
    42   112   110   ar
    43   140   138   ar
    44   108   110   ar
    45   108   107    1
    46    13     3   am
    47   104   105    1
    48   104   107    1
    49   104   103    1
    50   136   138   ar
    51   136   135    1
    52   102   100    1
    53   134   133    2
    54    10     8   ar
    55    10    11   ar
    56   118   115    1
    57   118   119    1
    58   120   119    1
    59   120   121    1
    60   115   116    1
    61     8     6   ar
    62   116   117    2
    63    41    42    2
    64   132   133    1
    65   132   135    1
    66   132   131    1
    67     3     4    2
    68     3     2    1
    69   100    99    1
    70    12    11    1
    71    11     9   ar
    72     6     5    1
    73     6     7   ar
    74     5     2    1
    75     2     1    1
    76    98    97    2
    77    99    96    1
    78    99   101    1
    79     9     7   ar
    80    96    97    1
    81    96    95    1
    82    53    52    2
    83    47    48    1
    84    54    52   am
    85    52    51    1
    86    61    60    1
    87    61    55    1
    88    60    59    1
    89   130   128   am
    90   125   124    2
    91    86    87   ar
    92    86    84   ar
    93    51    48    1
    94    48    49    1
    95    87    85   ar
    96   122   123    1
    97    84    81   ar
    98   129   128    2
    99   124   123    1
   100   123   126    1
   101    59    56    1
   102    55    49   am
   103    55    56    1
   104   128   127    1
   105    77    76    2
   106    85    83   ar
   107    49    50    2
   108    81    83   ar
   109    81    79   ar
   110    83    82   ar
   111    56    57    1
   112    78    79    1
   113    78    75    1
   114    79    80   ar
   115   127   126    1
   116    91    90    2
   117    76    75    1
   118    76    88   am
   119    57    58    2
   120    73    72    1
   121    82    80   ar
   122    75    74    1
   123    70    72   ar
   124    70    68   ar
   125    89    90    1
   126    89    88    1
   127    89    92    1
   128    72    71   ar
   129    93    92    1
   130    94    92    1
   131    68    67   ar
   132    71    69   ar
   133    67    69   ar
   134    67    66    1
   135    65    64    2
   136    63    66    1
   137    63    64    1
   138    63    62    1
