@<TRIPOS>MOLECULE
tmp/1y2dB00.pdb
 142 137 0 0 0
SMALL
GASTEIGER

@<TRIPOS>ATOM
      1  N          3.6370   46.2800   59.5970 N.3    74  TYR74      -0.1227
      2  CA         4.8870   45.5210   59.4260 C.3    74  TYR74       0.1736
      3  C          5.8210   46.1320   58.3830 C.2    74  TYR74       0.2595
      4  O          6.9700   46.4480   58.7080 O.2    74  TYR74      -0.2718
      5  CB         4.5940   44.0630   59.0760 C.3    74  TYR74       0.0548
      6  CG         5.8400   43.2030   58.9390 C.ar   74  TYR74      -0.0200
      7  CD1        6.3570   42.4900   60.0260 C.ar   74  TYR74      -0.0009
      8  CD2        6.5320   43.1340   57.7220 C.ar   74  TYR74      -0.0009
      9  CE1        7.4880   41.7310   59.9080 C.ar   74  TYR74       0.0417
     10  CE2        7.6840   42.3650   57.6020 C.ar   74  TYR74       0.0417
     11  CZ         8.1670   41.6690   58.7040 C.ar   74  TYR74       0.1957
     12  OH         9.3260   40.8900   58.5690 O.3    74  TYR74      -0.2866
     13  N          5.3310   46.3030   57.1500 N.am   75  HIS75      -0.1975
     14  CA         6.1750   46.7750   56.0340 C.3    75  HIS75       0.1656
     15  C          6.3880   48.2840   56.0620 C.2    75  HIS75       0.2291
     16  O          5.9680   49.0090   55.1560 O.2    75  HIS75      -0.2864
     17  CB         5.6090   46.3020   54.6840 C.3    75  HIS75       0.0771
     18  CG         5.7180   44.8310   54.4890 C.ar   75  HIS75       0.0820
     19  ND1        4.6710   43.9610   54.6990 N.ar   75  HIS75      -0.2267
     20  CD2        6.7800   44.0670   54.1410 C.ar   75  HIS75       0.1154
     21  CE1        5.0830   42.7200   54.4810 C.ar   75  HIS75       0.1986
     22  NE2        6.3560   42.7610   54.1260 N.ar   75  HIS75      -0.2212
     23  N          8.6580   36.7190   47.1010 N.3   188  MET188     -0.1245
     24  CA         8.5190   35.3600   47.6470 C.3   188  MET188      0.1570
     25  C          8.2570   34.2810   46.6130 C.2   188  MET188      0.2261
     26  O          8.5490   33.0990   46.8550 O.2   188  MET188     -0.2867
     27  CB         7.4550   35.3120   48.7660 C.3   188  MET188      0.0387
     28  CG         7.9630   35.7680   50.1140 C.3   188  MET188      0.0595
     29  SD         9.4040   34.8230   50.7720 S.3   188  MET188     -0.1393
     30  CE         8.7630   33.2750   50.9470 C.3   188  MET188      0.0692
     31  N         15.5870   39.5200   55.1980 N.3   233  ASP233     -0.1225
     32  CA        14.1540   39.7860   55.0730 C.3   233  ASP233      0.1805
     33  C         13.3360   38.7710   55.8870 C.2   233  ASP233      0.2597
     34  O         12.3140   39.1270   56.4950 O.2   233  ASP233     -0.2718
     35  CB        13.7880   39.7180   53.5960 C.3   233  ASP233      0.1424
     36  CG        12.5050   40.4560   53.2470 C.2   233  ASP233      0.3668
     37  OD1       12.0710   41.3900   53.9650 O.co2 233  ASP233     -0.2456
     38  OD2       11.8510   40.1130   52.2460 O.co2 233  ASP233     -0.2456
     39  N         13.8050   37.5190   55.9130 N.am  234  LEU234     -0.1979
     40  CA        13.1230   36.4340   56.6180 C.3   234  LEU234      0.1596
     41  C         13.8470   36.0970   57.9290 C.2   234  LEU234      0.2287
     42  O         13.9030   34.9330   58.3300 O.2   234  LEU234     -0.2864
     43  CB        13.0560   35.2040   55.7170 C.3   234  LEU234      0.0297
     44  CG        12.1710   35.3670   54.4740 C.3   234  LEU234      0.0022
     45  CD1       12.1570   34.0950   53.6570 C.3   234  LEU234      0.0001
     46  CD2       10.7500   35.7560   54.8310 C.3   234  LEU234      0.0001
     47  N         13.2100   37.4920   61.0720 N.3   236  ASN236     -0.1240
     48  CA        12.4820   37.6980   62.3390 C.3   236  ASN236      0.1653
     49  C         12.4330   36.4660   63.2760 C.2   236  ASN236      0.2266
     50  O         12.6610   36.6210   64.4790 O.2   236  ASN236     -0.2867
     51  CB        11.0380   38.1770   62.1700 C.3   236  ASN236      0.1155
     52  CG        10.8700   39.4590   61.3630 C.2   236  ASN236      0.2627
     53  OD1        9.7790   39.6520   60.8270 O.2   236  ASN236     -0.2716
     54  ND2       11.8800   40.3530   61.3130 N.am  236  ASN236     -0.0877
     55  N         11.0510   38.7750   68.0300 N.3   244  TYR244     -0.1241
     56  CA        10.2240   37.9550   67.1520 C.3   244  TYR244      0.1605
     57  C          8.7190   38.1300   67.4210 C.2   244  TYR244      0.2264
     58  O          7.9290   38.3230   66.4890 O.2   244  TYR244     -0.2867
     59  CB        10.6930   36.4950   67.2370 C.3   244  TYR244      0.0534
     60  CG         9.9440   35.4610   66.4300 C.ar  244  TYR244     -0.0201
     61  CD1        9.2330   35.7830   65.2740 C.ar  244  TYR244     -0.0009
     62  CD2       10.0000   34.1230   66.8070 C.ar  244  TYR244     -0.0009
     63  CE1        8.5830   34.8060   64.5480 C.ar  244  TYR244      0.0417
     64  CE2        9.3310   33.1470   66.0920 C.ar  244  TYR244      0.0417
     65  CZ         8.6290   33.4870   64.9620 C.ar  244  TYR244      0.1957
     66  OH         7.9440   32.4980   64.2660 O.3   244  TYR244     -0.2866
     67  N          7.3730   41.3200   65.9540 N.3   247  TRP247     -0.1227
     68  CA         7.2390   41.2120   64.5030 C.3   247  TRP247      0.1737
     69  C          6.0070   40.3990   64.1350 C.2   247  TRP247      0.2596
     70  O          5.3020   40.7600   63.1770 O.2   247  TRP247     -0.2718
     71  CB         8.4970   40.6210   63.8500 C.3   247  TRP247      0.0564
     72  CG         9.6860   41.5180   63.8890 C.ar  247  TRP247      0.0003
     73  CD1       10.8820   41.2540   64.5150 C.ar  247  TRP247      0.0946
     74  CD2        9.8230   42.8170   63.2960 C.ar  247  TRP247      0.0152
     75  NE1       11.7370   42.3190   64.3470 N.ar  247  TRP247     -0.2442
     76  CE2       11.1200   43.2820   63.5950 C.ar  247  TRP247      0.0810
     77  CE3        8.9720   43.6470   62.5540 C.ar  247  TRP247      0.0012
     78  CZ2       11.5860   44.5430   63.1900 C.ar  247  TRP247      0.0191
     79  CZ3        9.4460   44.9040   62.1250 C.ar  247  TRP247      0.0001
     80  CH2       10.7370   45.3320   62.4590 C.ar  247  TRP247      0.0015
     81  N          5.7440   39.3230   64.8720 N.am  248  THR248     -0.1953
     82  CA         4.5590   38.4880   64.6230 C.3   248  THR248      0.1897
     83  C          3.2820   39.2880   64.8590 C.2   248  THR248      0.2313
     84  O          2.3510   39.2380   64.0440 O.2   248  THR248     -0.2863
     85  CB         4.5930   37.2170   65.4670 C.3   248  THR248      0.1794
     86  OG1        5.7600   36.4580   65.1190 O.3   248  THR248     -0.2208
     87  CG2        3.4120   36.2810   65.1440 C.3   248  THR248      0.0378
     88  N          2.9080   41.6260   61.7410 N.3   251  ILE251     -0.1245
     89  CA         2.5040   41.0320   60.4500 C.3   251  ILE251      0.1561
     90  C          1.0670   40.5180   60.5240 C.2   251  ILE251      0.2260
     91  O          0.3280   40.6130   59.5450 O.2   251  ILE251     -0.2867
     92  CB         3.4730   39.9370   59.9330 C.3   251  ILE251      0.0252
     93  CG1        3.2000   39.6480   58.4430 C.3   251  ILE251      0.0019
     94  CG2        3.3050   38.6560   60.6870 C.3   251  ILE251      0.0019
     95  CD1        3.5590   40.7690   57.5320 C.3   251  ILE251      0.0001
     96  N         -1.8340   41.5320   57.9690 N.3   255  PHE255     -0.1241
     97  CA        -2.5910   40.4900   57.2760 C.3   255  PHE255      0.1605
     98  C         -4.1140   40.5900   57.5380 C.2   255  PHE255      0.2264
     99  O         -4.9260   40.4750   56.6060 O.2   255  PHE255     -0.2867
    100  CB        -2.0960   39.0990   57.7030 C.3   255  PHE255      0.0534
    101  CG        -0.7910   38.6500   57.0720 C.ar  255  PHE255     -0.0203
    102  CD1       -0.1130   39.4010   56.1080 C.ar  255  PHE255     -0.0042
    103  CD2       -0.2310   37.4460   57.4790 C.ar  255  PHE255     -0.0042
    104  CE1        1.0480   38.9340   55.5450 C.ar  255  PHE255     -0.0003
    105  CE2        0.9440   36.9790   56.9190 C.ar  255  PHE255     -0.0003
    106  CZ         1.5790   37.7190   55.9490 C.ar  255  PHE255     -0.0000
    107  N         -4.0550   33.0820   56.5340 N.3   272  MET272     -0.1245
    108  CA        -3.5740   33.8910   57.6650 C.3   272  MET272      0.1570
    109  C         -4.1780   35.2980   57.7610 C.2   272  MET272      0.2261
    110  O         -3.7940   36.0640   58.6460 O.2   272  MET272     -0.2867
    111  CB        -2.0430   34.0000   57.6570 C.3   272  MET272      0.0387
    112  CG        -1.3090   32.6650   57.7260 C.3   272  MET272      0.0595
    113  SD         0.4980   32.8100   57.6690 S.3   272  MET272     -0.1393
    114  CE         0.8610   33.7730   59.1510 C.3   272  MET272      0.0692
    115  N          3.0490   30.1850   62.6060 N.3   284  GLN284     -0.1245
    116  CA         4.4710   30.4770   62.7920 C.3   284  GLN284      0.1566
    117  C          5.2810   29.1880   62.6610 C.2   284  GLN284      0.2260
    118  O          6.3210   29.1740   62.0020 O.2   284  GLN284     -0.2867
    119  CB         4.7320   31.1580   64.1310 C.3   284  GLN284      0.0367
    120  CG         4.3790   32.6740   64.1440 C.3   284  GLN284      0.0905
    121  CD         4.9260   33.4280   62.9510 C.2   284  GLN284      0.2608
    122  OE1        6.1250   33.4660   62.7450 O.2   284  GLN284     -0.2717
    123  NE2        4.0260   33.9960   62.1170 N.am  284  GLN284     -0.0878
    124  N          5.4050   28.3940   58.9790 N.3   287  PHE287     -0.1241
    125  CA         6.3000   29.3680   58.3120 C.3   287  PHE287      0.1605
    126  C          7.7630   28.9540   58.5290 C.2   287  PHE287      0.2264
    127  O          8.5520   28.9180   57.5950 O.2   287  PHE287     -0.2867
    128  CB         6.0230   30.7630   58.9000 C.3   287  PHE287      0.0534
    129  CG         6.8880   31.8880   58.3550 C.ar  287  PHE287     -0.0203
    130  CD1        7.0770   32.0520   57.0010 C.ar  287  PHE287     -0.0042
    131  CD2        7.4600   32.8100   59.2220 C.ar  287  PHE287     -0.0042
    132  CE1        7.8530   33.1120   56.5120 C.ar  287  PHE287     -0.0003
    133  CE2        8.2350   33.8790   58.7360 C.ar  287  PHE287     -0.0003
    134  CZ         8.4300   34.0090   57.3730 C.ar  287  PHE287     -0.0000
    135  N          9.5470   27.3010   55.2030 N.3   291  ILE291     -0.1245
    136  CA        10.2550   28.3920   54.5410 C.3   291  ILE291      0.1561
    137  C         11.5310   28.8530   55.2640 C.2   291  ILE291      0.2260
    138  O         12.6240   28.7800   54.7070 O.2   291  ILE291     -0.2867
    139  CB         9.3140   29.6220   54.3900 C.3   291  ILE291      0.0252
    140  CG1        8.0730   29.2920   53.5450 C.3   291  ILE291      0.0019
    141  CG2       10.0730   30.8050   53.7940 C.3   291  ILE291      0.0019
    142  CD1        8.3580   28.7510   52.1700 C.3   291  ILE291      0.0001
@<TRIPOS>BOND
     1    25    26    2
     2    25    24    1
     3    23    24    1
     4    24    27    1
     5    27    28    1
     6    28    29    1
     7    29    30    1
     8   142   140    1
     9    38    36   ar
    10    36    35    1
    11    36    37   ar
    12   140   139    1
    13    35    32    1
    14    45    44    1
    15   141   139    1
    16    22    20   ar
    17    22    21   ar
    18    20    18   ar
    19   139   136    1
    20    44    46    1
    21    44    43    1
    22    21    19   ar
    23    18    17    1
    24    18    19   ar
    25   136   135    1
    26   136   137    1
    27    17    14    1
    28   138   137    2
    29    32    31    1
    30    32    33    1
    31    16    15    2
    32   104   106   ar
    33   104   102   ar
    34    43    40    1
    35    33    39   am
    36    33    34    2
    37    39    40    1
    38   106   105   ar
    39    14    15    1
    40    14    13    1
    41   102   101   ar
    42   132   130   ar
    43   132   134   ar
    44   107   108    1
    45    99    98    2
    46    40    41    1
    47   105   103   ar
    48   130   129   ar
    49   101   103   ar
    50   101   100    1
    51    13     3   am
    52    97    98    1
    53    97   100    1
    54    97    96    1
    55   134   133   ar
    56    95    93    1
    57   127   126    2
    58    10     8   ar
    59    10    11   ar
    60   111   108    1
    61   111   112    1
    62   108   109    1
    63   113   112    1
    64   113   114    1
    65     8     6   ar
    66   109   110    2
    67    41    42    2
    68   125   126    1
    69   125   128    1
    70   125   124    1
    71   129   128    1
    72   129   131   ar
    73     3     4    2
    74     3     2    1
    75    93    92    1
    76    12    11    1
    77    11     9   ar
    78   133   131   ar
    79     6     5    1
    80     6     7   ar
    81     5     2    1
    82     2     1    1
    83    91    90    2
    84     9     7   ar
    85    92    89    1
    86    92    94    1
    87    89    90    1
    88    89    88    1
    89    53    52    2
    90    47    48    1
    91    54    52   am
    92    52    51    1
    93   118   117    2
    94   123   121   am
    95    79    80   ar
    96    79    77   ar
    97    51    48    1
    98    48    49    1
    99    80    78   ar
   100    77    74   ar
   101   115   116    1
   102   117   116    1
   103   122   121    2
   104   116   119    1
   105   121   120    1
   106    70    69    2
   107    78    76   ar
   108    49    50    2
   109    74    76   ar
   110    74    72   ar
   111    76    75   ar
   112    71    72    1
   113    71    68    1
   114    72    73   ar
   115    84    83    2
   116   119   120    1
   117    69    68    1
   118    69    81   am
   119    66    65    1
   120    75    73   ar
   121    68    67    1
   122    63    65   ar
   123    63    61   ar
   124    82    83    1
   125    82    81    1
   126    82    85    1
   127    65    64   ar
   128    86    85    1
   129    87    85    1
   130    61    60   ar
   131    64    62   ar
   132    60    62   ar
   133    60    59    1
   134    58    57    2
   135    56    59    1
   136    56    57    1
   137    56    55    1
