@<TRIPOS>MOLECULE
tmp/1y2eA00.pdb
 166 160 0 0 0
SMALL
GASTEIGER

@<TRIPOS>ATOM
      1  N          7.9080   14.0090   11.5000 N.3    74  TYR74      -0.1227
      2  CA         7.7330   12.5570   11.4300 C.3    74  TYR74       0.1736
      3  C          6.7680   11.9980   12.4950 C.2    74  TYR74       0.2595
      4  O          5.7660   11.3510   12.1770 O.2    74  TYR74      -0.2718
      5  CB         9.0840   11.8240   11.4740 C.3    74  TYR74       0.0548
      6  CG         8.9540   10.3120   11.3590 C.ar   74  TYR74      -0.0200
      7  CD1        9.1380    9.6440   10.1340 C.ar   74  TYR74      -0.0009
      8  CD2        8.6630    9.5470   12.4730 C.ar   74  TYR74      -0.0009
      9  CE1        9.0060    8.2160   10.0570 C.ar   74  TYR74       0.0417
     10  CE2        8.5510    8.1510   12.4010 C.ar   74  TYR74       0.0417
     11  CZ         8.7070    7.4960   11.2030 C.ar   74  TYR74       0.1957
     12  OH         8.5820    6.1130   11.1890 O.3    74  TYR74      -0.2866
     13  N          7.0920   12.2180   13.7590 N.am   75  HIS75      -0.1975
     14  CA         6.2770   11.7180   14.8710 C.3    75  HIS75       0.1656
     15  C          5.0050   12.5270   15.0780 C.2    75  HIS75       0.2291
     16  O          4.8850   13.2920   16.0250 O.2    75  HIS75      -0.2864
     17  CB         7.1220   11.7020   16.1300 C.3    75  HIS75       0.0771
     18  CG         8.2170   10.6900   16.0880 C.ar   75  HIS75       0.0820
     19  ND1        9.5490   11.0380   16.0510 N.ar   75  HIS75      -0.2267
     20  CD2        8.1780    9.3380   16.0610 C.ar   75  HIS75       0.1154
     21  CE1       10.2840    9.9380   16.0410 C.ar   75  HIS75       0.1986
     22  NE2        9.4750    8.8940   16.0470 N.ar   75  HIS75      -0.2212
     23  N          2.9510    7.2830   20.2510 N.3   116  ASP116     -0.1239
     24  CA         3.8100    8.4640   20.1690 C.3   116  ASP116      0.1674
     25  C          3.0940    9.7600   20.4640 C.2   116  ASP116      0.2266
     26  O          3.6220   10.8280   20.1330 O.2   116  ASP116     -0.2867
     27  CB         4.4130    8.6140   18.7770 C.3   116  ASP116      0.1410
     28  CG         5.7120    7.8260   18.5790 C.2   116  ASP116      0.3668
     29  OD1        6.5230    7.5960   19.5140 O.co2 116  ASP116     -0.2456
     30  OD2        6.0100    7.4310   17.4610 O.co2 116  ASP116     -0.2456
     31  N          8.2010    7.3040   26.0240 N.3   145  GLU145     -0.1245
     32  CA         7.2380    6.2090   26.0080 C.3   145  GLU145      0.1567
     33  C          6.2830    6.2070   27.2240 C.2   145  GLU145      0.2260
     34  O          5.0910    5.9780   27.0810 O.2   145  GLU145     -0.2867
     35  CB         7.9760    4.8710   25.8710 C.3   145  GLU145      0.0388
     36  CG         8.6790    4.7000   24.5240 C.3   145  GLU145      0.1160
     37  CD         9.9920    5.4700   24.3730 C.2   145  GLU145      0.3649
     38  OE1       10.6600    5.8240   25.3780 O.co2 145  GLU145     -0.2457
     39  OE2       10.3840    5.7190   23.2140 O.co2 145  GLU145     -0.2457
     40  N          8.3860   -0.0210   22.3840 N.3   186  THR186     -0.1203
     41  CA         8.7200    0.8000   21.2000 C.3   186  THR186      0.1994
     42  C          9.9310    1.7240   21.3870 C.2   186  THR186      0.2618
     43  O         10.3160    2.4500   20.4680 O.2   186  THR186     -0.2717
     44  CB         7.5190    1.6490   20.6950 C.3   186  THR186      0.1784
     45  OG1        7.1010    2.6060   21.6860 O.3   186  THR186     -0.2211
     46  CG2        6.2900    0.7820   20.4190 C.3   186  THR186      0.0376
     47  N         10.4870    1.7230   22.5910 N.am  187  ASP187     -0.1959
     48  CA        11.7050    2.4420   22.9390 C.3   187  ASP187      0.1840
     49  C         12.8210    1.6240   22.2960 C.2   187  ASP187      0.2621
     50  O         12.9770    0.4120   22.5860 O.2   187  ASP187     -0.2715
     51  CB        11.8130    2.5010   24.4730 C.3   187  ASP187      0.1450
     52  CG        13.1190    3.0860   24.9860 C.2   187  ASP187      0.3671
     53  OD1       14.0140    3.4780   24.1980 O.co2 187  ASP187     -0.2456
     54  OD2       13.3120    3.1830   26.2200 O.co2 187  ASP187     -0.2456
     55  N         13.5840    2.2640   21.4090 N.am  188  MET188     -0.1977
     56  CA        14.6420    1.5810   20.6500 C.3   188  MET188      0.1605
     57  C         15.7640    0.9960   21.5170 C.2   188  MET188      0.2287
     58  O         16.4330    0.0470   21.0910 O.2   188  MET188     -0.2864
     59  CB        15.2220    2.4800   19.5400 C.3   188  MET188      0.0413
     60  CG        14.3560    2.5390   18.2420 C.3   188  MET188      0.0598
     61  SD        14.1430    0.9310   17.4050 S.3   188  MET188     -0.1393
     62  CE        15.8310    0.4530   17.1170 C.3   188  MET188      0.0692
     63  N          6.2560   -0.1940   13.8140 N.3   233  ASP233     -0.1225
     64  CA         6.9690    1.0710   14.0680 C.3   233  ASP233      0.1805
     65  C          8.1890    1.1940   13.1290 C.2   233  ASP233      0.2597
     66  O          8.5670    2.2940   12.7000 O.2   233  ASP233     -0.2718
     67  CB         7.4170    1.1100   15.5360 C.3   233  ASP233      0.1424
     68  CG         7.6860    2.5050   16.0460 C.2   233  ASP233      0.3668
     69  OD1        7.0310    3.4610   15.5870 O.co2 233  ASP233     -0.2456
     70  OD2        8.5460    2.7260   16.9250 O.co2 233  ASP233     -0.2456
     71  N          8.7850    0.0500   12.8070 N.am  234  LEU234     -0.1979
     72  CA         9.9680   -0.0460   11.9330 C.3   234  LEU234      0.1596
     73  C          9.5890   -0.6220   10.5480 C.2   234  LEU234      0.2287
     74  O         10.3530   -1.3890    9.9400 O.2   234  LEU234     -0.2864
     75  CB        11.0260   -0.9450   12.6190 C.3   234  LEU234      0.0297
     76  CG        11.6250   -0.4200   13.9400 C.3   234  LEU234      0.0022
     77  CD1       12.6730   -1.3510   14.4910 C.3   234  LEU234      0.0001
     78  CD2       12.2220    0.9510   13.7610 C.3   234  LEU234      0.0001
     79  N          8.5440    1.3730    7.7410 N.3   236  ASN236     -0.1240
     80  CA         8.7120    2.3090    6.6050 C.3   236  ASN236      0.1653
     81  C          9.5530    1.7490    5.4410 C.2   236  ASN236      0.2266
     82  O          9.1460    1.8810    4.2790 O.2   236  ASN236     -0.2867
     83  CB         9.3400    3.6610    7.0070 C.3   236  ASN236      0.1155
     84  CG         8.5830    4.4120    8.1120 C.2   236  ASN236      0.2627
     85  OD1        9.2070    5.1630    8.8790 O.2   236  ASN236     -0.2716
     86  ND2        7.2640    4.2580    8.1810 N.am  236  ASN236     -0.0877
     87  N          8.0940    5.0970    1.4600 N.3   244  TYR244     -0.1241
     88  CA         9.3420    5.0640    2.2330 C.3   244  TYR244      0.1605
     89  C         10.1510    6.3480    2.0920 C.2   244  TYR244      0.2264
     90  O         10.6350    6.8930    3.0800 O.2   244  TYR244     -0.2867
     91  CB        10.1660    3.8610    1.7600 C.3   244  TYR244      0.0534
     92  CG        11.5370    3.6240    2.3740 C.ar  244  TYR244     -0.0201
     93  CD1       11.9520    4.2620    3.5460 C.ar  244  TYR244     -0.0009
     94  CD2       12.4230    2.7230    1.7680 C.ar  244  TYR244     -0.0009
     95  CE1       13.2180    4.0320    4.0720 C.ar  244  TYR244      0.0417
     96  CE2       13.6810    2.4670    2.3030 C.ar  244  TYR244      0.0417
     97  CZ        14.0740    3.1300    3.4460 C.ar  244  TYR244      0.1957
     98  OH        15.3110    2.8940    3.9760 O.3   244  TYR244     -0.2866
     99  N          8.7130    9.1090    4.1450 N.3   247  TRP247     -0.1227
    100  CA         8.9970    8.9050    5.5680 C.3   247  TRP247      0.1737
    101  C         10.4390    9.3020    5.8530 C.2   247  TRP247      0.2596
    102  O         10.7370    9.9270    6.8650 O.2   247  TRP247     -0.2718
    103  CB         8.7430    7.4480    5.9910 C.3   247  TRP247      0.0564
    104  CG         7.2890    7.0570    6.0510 C.ar  247  TRP247      0.0003
    105  CD1        6.6820    6.0280    5.3590 C.ar  247  TRP247      0.0946
    106  CD2        6.2590    7.6600    6.8420 C.ar  247  TRP247      0.0152
    107  NE1        5.3460    5.9730    5.6760 N.ar  247  TRP247     -0.2442
    108  CE2        5.0560    6.9670    6.5720 C.ar  247  TRP247      0.0810
    109  CE3        6.2250    8.7260    7.7560 C.ar  247  TRP247      0.0012
    110  CZ2        3.8470    7.2920    7.1830 C.ar  247  TRP247      0.0191
    111  CZ3        5.0140    9.0500    8.3650 C.ar  247  TRP247      0.0001
    112  CH2        3.8470    8.3360    8.0720 C.ar  247  TRP247      0.0015
    113  N         11.3380    8.9240    4.9490 N.am  248  THR248     -0.1953
    114  CA        12.7440    9.2820    5.0650 C.3   248  THR248      0.1897
    115  C         12.9380   10.7880    5.0990 C.2   248  THR248      0.2313
    116  O         13.7250   11.2870    5.8970 O.2   248  THR248     -0.2863
    117  CB        13.5680    8.6730    3.9130 C.3   248  THR248      0.1794
    118  OG1       13.5850    7.2430    4.0300 O.3   248  THR248     -0.2208
    119  CG2       15.0230    9.0650    4.0370 C.3   248  THR248      0.0378
    120  N         11.7100   12.0890    8.6350 N.3   251  ILE251     -0.1245
    121  CA        12.5840   11.7940    9.7820 C.3   251  ILE251      0.1561
    122  C         13.8640   12.6410    9.7170 C.2   251  ILE251      0.2260
    123  O         14.3230   13.1470   10.7410 O.2   251  ILE251     -0.2867
    124  CB        12.8840   10.2750    9.9530 C.3   251  ILE251      0.0252
    125  CG1       13.4820    9.9900   11.3390 C.3   251  ILE251      0.0019
    126  CG2       13.8390    9.7420    8.9050 C.3   251  ILE251      0.0019
    127  CD1       12.4930   10.1500   12.4910 C.3   251  ILE251      0.0001
    128  N         15.1170   15.1150   12.6400 N.3   255  PHE255     -0.1241
    129  CA        16.4780   14.9480   13.1460 C.3   255  PHE255      0.1605
    130  C         17.3310   16.2340   12.9320 C.2   255  PHE255      0.2264
    131  O         18.0780   16.6400   13.8300 O.2   255  PHE255     -0.2867
    132  CB        17.1680   13.7460   12.4610 C.3   255  PHE255      0.0534
    133  CG        16.7210   12.3570   12.9470 C.ar  255  PHE255     -0.0203
    134  CD1       15.8500   12.1740   14.0010 C.ar  255  PHE255     -0.0042
    135  CD2       17.2530   11.2210   12.3390 C.ar  255  PHE255     -0.0042
    136  CE1       15.4990   10.8530   14.4330 C.ar  255  PHE255     -0.0003
    137  CE2       16.9010    9.9160   12.7630 C.ar  255  PHE255     -0.0003
    138  CZ        16.0380    9.7410   13.7990 C.ar  255  PHE255     -0.0000
    139  N         23.0420   11.4430   12.5210 N.3   272  MET272     -0.1245
    140  CA        22.0240   11.7760   11.5200 C.3   272  MET272      0.1570
    141  C         21.2970   13.1070   11.7610 C.2   272  MET272      0.2261
    142  O         20.3370   13.4140   11.0560 O.2   272  MET272     -0.2867
    143  CB        21.0120   10.6410   11.3590 C.3   272  MET272      0.0387
    144  CG        21.6510    9.2560   11.2050 C.3   272  MET272      0.0595
    145  SD        20.5080    7.8780   10.9980 S.3   272  MET272     -0.1393
    146  CE        19.2870    8.5030    9.8270 C.3   272  MET272      0.0692
    147  N         20.3940    5.2020    5.4630 N.3   284  GLN284     -0.1245
    148  CA        19.2840    4.2840    5.1910 C.3   284  GLN284      0.1566
    149  C         19.7540    2.8590    4.9900 C.2   284  GLN284      0.2260
    150  O         19.1160    1.9260    5.4890 O.2   284  GLN284     -0.2867
    151  CB        18.4440    4.7410    3.9890 C.3   284  GLN284      0.0367
    152  CG        17.5660    5.9380    4.3200 C.3   284  GLN284      0.0905
    153  CD        16.8040    5.7310    5.6000 C.2   284  GLN284      0.2608
    154  OE1       16.0530    4.7550    5.7310 O.2   284  GLN284     -0.2717
    155  NE2       17.0430    6.5990    6.5800 N.am  284  GLN284     -0.0878
    156  N         20.6130    1.6320    8.4220 N.3   287  PHE287     -0.1241
    157  CA        19.3770    1.4010    9.1620 C.3   287  PHE287      0.1605
    158  C         18.8010    0.0390    8.7690 C.2   287  PHE287      0.2264
    159  O         18.4450   -0.7520    9.6480 O.2   287  PHE287     -0.2867
    160  CB        18.3790    2.5170    8.8610 C.3   287  PHE287      0.0534
    161  CG        17.0970    2.4690    9.6660 C.ar  287  PHE287     -0.0203
    162  CD1       17.0990    2.1800   11.0270 C.ar  287  PHE287     -0.0042
    163  CD2       15.8810    2.7500    9.0480 C.ar  287  PHE287     -0.0042
    164  CE1       15.9130    2.1500   11.7440 C.ar  287  PHE287     -0.0003
    165  CE2       14.6850    2.7310    9.7730 C.ar  287  PHE287     -0.0003
    166  CZ        14.7050    2.4400   11.1130 C.ar  287  PHE287     -0.0000
@<TRIPOS>BOND
     1    87    88    1
     2    91    88    1
     3    91    92    1
     4    94    96   ar
     5    94    92   ar
     6    89    88    1
     7    89    90    2
     8    96    97   ar
     9    92    93   ar
    10    97    98    1
    11    97    95   ar
    12    93    95   ar
    13   117   118    1
    14   117   119    1
    15   117   114    1
    16   151   152    1
    17   151   148    1
    18    99   100    1
    19    82    81    2
    20   152   153    1
    21   113   114    1
    22   113   101   am
    23   149   148    1
    24   149   150    2
    25   114   115    1
    26   115   116    2
    27   148   147    1
    28   105   107   ar
    29   105   104   ar
    30    81    80    1
    31   100   101    1
    32   100   103    1
    33   153   154    2
    34   153   155   am
    35   107   108   ar
    36   101   102    2
    37   103   104    1
    38   104   106   ar
    39   108   106   ar
    40   108   110   ar
    41    80    83    1
    42    80    79    1
    43   106   109   ar
    44    83    84    1
    45   110   112   ar
    46   109   111   ar
    47   112   111   ar
    48    84    86   am
    49    84    85    2
    50   156   157    1
    51   120   121    1
    52   158   157    1
    53   158   159    2
    54   160   157    1
    55   160   161    1
    56   126   124    1
    57   163   161   ar
    58   163   165   ar
    59   161   162   ar
    60   122   121    1
    61   122   123    2
    62   165   166   ar
    63   121   124    1
    64   146   145    1
    65    74    73    2
    66   124   125    1
    67     9     7   ar
    68     9    11   ar
    69     7     6   ar
    70    73    72    1
    71   145   144    1
    72   162   164   ar
    73   142   141    2
    74   166   164   ar
    75    12    11    1
    76    11    10   ar
    77   144   143    1
    78   125   127    1
    79     6     5    1
    80     6     8   ar
    81   143   140    1
    82     2     5    1
    83     2     1    1
    84     2     3    1
    85   140   141    1
    86   140   139    1
    87    72    75    1
    88    72    71    1
    89     4     3    2
    90   135   137   ar
    91   135   133   ar
    92    10     8   ar
    93   132   133    1
    94   132   129    1
    95     3    13   am
    96    75    76    1
    97   128   129    1
    98    66    65    2
    99   137   138   ar
   100    71    65   am
   101   130   129    1
   102   130   131    2
   103   133   134   ar
   104    65    64    1
   105    13    14    1
   106    78    76    1
   107   138   136   ar
   108    63    64    1
   109    76    77    1
   110   134   136   ar
   111    64    67    1
   112    14    15    1
   113    14    17    1
   114    15    16    2
   115    67    68    1
   116    69    68   ar
   117    21    22   ar
   118    21    19   ar
   119    68    70   ar
   120    22    20   ar
   121    19    18   ar
   122    20    18   ar
   123    18    17    1
   124    62    61    1
   125    61    60    1
   126    30    28   ar
   127    60    59    1
   128    28    27    1
   129    28    29   ar
   130    27    24    1
   131    59    56    1
   132    26    25    2
   133    24    23    1
   134    24    25    1
   135    46    44    1
   136    43    42    2
   137    56    55    1
   138    56    57    1
   139    44    41    1
   140    44    45    1
   141    58    57    2
   142    41    42    1
   143    41    40    1
   144    42    47   am
   145    55    49   am
   146    49    50    2
   147    49    48    1
   148    47    48    1
   149    48    51    1
   150    39    37   ar
   151    53    52   ar
   152    37    36    1
   153    37    38   ar
   154    51    52    1
   155    36    35    1
   156    52    54   ar
   157    35    32    1
   158    32    31    1
   159    32    33    1
   160    34    33    2
