@<TRIPOS>MOLECULE
tmp/1y2jB00.pdb
 202 195 0 0 0
SMALL
GASTEIGER

@<TRIPOS>ATOM
      1  N          0.1890   10.6500   42.2640 N.3    70  TYR70      -0.1227
      2  CA        -0.0760    9.4660   43.0640 C.3    70  TYR70       0.1736
      3  C          0.6190    9.4790   44.4230 C.2    70  TYR70       0.2595
      4  O         -0.0190    9.2230   45.4360 O.2    70  TYR70      -0.2718
      5  CB         0.3330    8.2250   42.2910 C.3    70  TYR70       0.0548
      6  CG         0.1390    6.9330   43.0340 C.ar   70  TYR70      -0.0200
      7  CD1       -1.0490    6.2360   42.9490 C.ar   70  TYR70      -0.0009
      8  CD2        1.1420    6.4190   43.8220 C.ar   70  TYR70      -0.0009
      9  CE1       -1.2180    5.0460   43.6360 C.ar   70  TYR70       0.0417
     10  CE2        0.9850    5.2400   44.5100 C.ar   70  TYR70       0.0417
     11  CZ        -0.1840    4.5570   44.4200 C.ar   70  TYR70       0.1957
     12  OH        -0.3160    3.3720   45.0910 O.3    70  TYR70      -0.2866
     13  N          1.9030    9.7990   44.4120 N.am   71  HIS71      -0.1975
     14  CA         2.7550    9.8360   45.5900 C.3    71  HIS71       0.1656
     15  C          2.6450   11.0870   46.4960 C.2    71  HIS71       0.2291
     16  O          3.6400   11.6180   46.9640 O.2    71  HIS71      -0.2864
     17  CB         4.1710    9.6300   45.1060 C.3    71  HIS71       0.0771
     18  CG         4.4730    8.2010   44.8220 C.ar   71  HIS71       0.0820
     19  ND1        4.4870    7.6760   43.5540 N.ar   71  HIS71      -0.2267
     20  CD2        4.7330    7.1700   45.6580 C.ar   71  HIS71       0.1154
     21  CE1        4.7750    6.3900   43.6110 C.ar   71  HIS71       0.1986
     22  NE2        4.9390    6.0590   44.8760 N.ar   71  HIS71      -0.2212
     23  N         -1.8220    9.3300   49.4080 N.3    75  HIS75      -0.1241
     24  CA        -1.2830    7.9720   49.2640 C.3    75  HIS75       0.1621
     25  C         -0.6140    7.5460   50.5750 C.2    75  HIS75       0.2264
     26  O         -0.5130    6.3490   50.8210 O.2    75  HIS75      -0.2867
     27  CB        -0.1960    7.8330   48.1710 C.3    75  HIS75       0.0745
     28  CG         0.5520    6.5250   48.2270 C.ar   75  HIS75       0.0817
     29  ND1       -0.0640    5.2980   48.0870 N.ar   75  HIS75      -0.2268
     30  CD2        1.8560    6.2540   48.4560 C.ar   75  HIS75       0.1154
     31  CE1        0.8310    4.3300   48.2280 C.ar   75  HIS75       0.1986
     32  NE2        2.0080    4.8820   48.4470 N.ar   75  HIS75      -0.2212
     33  N          8.2750   12.7670   47.7910 N.3   115  HIS115     -0.1241
     34  CA         8.4750   11.9820   46.5500 C.3   115  HIS115      0.1621
     35  C          8.4950   12.9310   45.3240 C.2   115  HIS115      0.2264
     36  O          7.5280   13.6380   45.1130 O.2   115  HIS115     -0.2867
     37  CB         7.3340   10.9880   46.3740 C.3   115  HIS115      0.0745
     38  CG         7.7200    9.7310   45.6730 C.ar  115  HIS115      0.0817
     39  ND1        7.8680    9.6590   44.3050 N.ar  115  HIS115     -0.2268
     40  CD2        7.9380    8.4820   46.1430 C.ar  115  HIS115      0.1154
     41  CE1        8.2090    8.4230   43.9720 C.ar  115  HIS115      0.1986
     42  NE2        8.2440    7.6880   45.0700 N.ar  115  HIS115     -0.2212
     43  N         13.7360    5.8410   49.1620 N.3   141  GLU141     -0.1245
     44  CA        13.3780    5.2540   50.4190 C.3   141  GLU141      0.1567
     45  C         14.3220    5.8070   51.4940 C.2   141  GLU141      0.2260
     46  O         13.8770    6.2160   52.5500 O.2   141  GLU141     -0.2867
     47  CB        13.4140    3.7390   50.2700 C.3   141  GLU141      0.0388
     48  CG        12.2370    3.1940   49.4430 C.3   141  GLU141      0.1160
     49  CD        12.4490    3.1420   47.8860 C.2   141  GLU141      0.3649
     50  OE1       13.6070    3.1920   47.3720 O.co2 141  GLU141     -0.2457
     51  OE2       11.4120    3.0200   47.1660 O.co2 141  GLU141     -0.2457
     52  N          9.9370   -0.8350   51.4620 N.3   182  THR182     -0.1218
     53  CA         8.9630   -0.3940   50.4430 C.3   182  THR182      0.1862
     54  C          9.6140   -0.1760   49.0330 C.2   182  THR182      0.2287
     55  O          8.9970    0.3380   48.0870 O.2   182  THR182     -0.2866
     56  CB         8.2420    0.8630   50.9390 C.3   182  THR182      0.1770
     57  OG1        9.1800    1.9130   51.1600 O.3   182  THR182     -0.2211
     58  CG2        7.6340    0.6200   52.3550 C.3   182  THR182      0.0375
     59  N         10.7610   -1.4510   45.6520 N.3   184  MET184     -0.1245
     60  CA        10.3090   -2.5430   44.7900 C.3   184  MET184      0.1570
     61  C         11.4330   -3.4930   44.3020 C.2   184  MET184      0.2261
     62  O         11.1450   -4.5760   43.8170 O.2   184  MET184     -0.2867
     63  CB         9.4670   -1.9980   43.6400 C.3   184  MET184      0.0387
     64  CG         8.1790   -1.3860   44.1140 C.3   184  MET184      0.0595
     65  SD         7.0280   -2.5920   44.8680 S.3   184  MET184     -0.1393
     66  CE         7.2470   -4.0900   43.8470 C.3   184  MET184      0.0692
     67  N          4.5400   -3.2220   53.4500 N.3   226  HIS226     -0.1241
     68  CA         4.7320   -3.4910   52.0420 C.3   226  HIS226      0.1621
     69  C          3.4000   -3.8700   51.4130 C.2   226  HIS226      0.2264
     70  O          3.1180   -3.4280   50.2910 O.2   226  HIS226     -0.2867
     71  CB         5.7640   -4.5950   51.8130 C.3   226  HIS226      0.0745
     72  CG         6.0460   -4.8660   50.3670 C.ar  226  HIS226      0.0817
     73  ND1        6.0770   -3.8690   49.4150 N.ar  226  HIS226     -0.2268
     74  CD2        6.2960   -6.0250   49.7090 C.ar  226  HIS226      0.1154
     75  CE1        6.3500   -4.4040   48.2370 C.ar  226  HIS226      0.1986
     76  NE2        6.4950   -5.7080   48.3870 N.ar  226  HIS226     -0.2212
     77  N          1.2100   -0.7040   51.0820 N.3   229  ASP229     -0.1225
     78  CA         1.7020   -0.0040   49.8760 C.3   229  ASP229      0.1805
     79  C          1.0960   -0.6260   48.5630 C.2   229  ASP229      0.2597
     80  O          0.7210    0.0960   47.6230 O.2   229  ASP229     -0.2718
     81  CB         3.2380   -0.0930   49.8200 C.3   229  ASP229      0.1424
     82  CG         3.8860    1.1560   49.3210 C.2   229  ASP229      0.3668
     83  OD1        5.1010    1.1450   49.0810 O.co2 229  ASP229     -0.2456
     84  OD2        3.2770    2.1960   49.1410 O.co2 229  ASP229     -0.2456
     85  N          0.9730   -1.9580   48.5330 N.am  230  LEU230     -0.1979
     86  CA         0.4400   -2.6820   47.3820 C.3   230  LEU230      0.1596
     87  C         -0.9860   -3.1620   47.5920 C.2   230  LEU230      0.2287
     88  O         -1.3830   -4.1860   47.0110 O.2   230  LEU230     -0.2864
     89  CB         1.3260   -3.8830   47.0880 C.3   230  LEU230      0.0297
     90  CG         2.7120   -3.5050   46.6040 C.3   230  LEU230      0.0022
     91  CD1        3.5150   -4.7660   46.4670 C.3   230  LEU230      0.0001
     92  CD2        2.6350   -2.7820   45.2800 C.3   230  LEU230      0.0001
     93  N         -3.7560   -1.1260   46.9150 N.3   232  ASN232     -0.1240
     94  CA        -4.6990   -0.4760   46.0150 C.3   232  ASN232      0.1653
     95  C         -5.6360   -1.4670   45.2710 C.2   232  ASN232      0.2266
     96  O         -6.8380   -1.2310   45.2330 O.2   232  ASN232     -0.2867
     97  CB        -3.9720    0.4560   45.0430 C.3   232  ASN232      0.1155
     98  CG        -3.3880    1.7090   45.7050 C.2   232  ASN232      0.2627
     99  OD1       -2.3800    2.2100   45.2510 O.2   232  ASN232     -0.2716
    100  ND2       -4.0460    2.2410   46.7150 N.am  232  ASN232     -0.0877
    101  N        -10.1100    1.6350   43.5680 N.3   240  TYR240     -0.1241
    102  CA        -8.9550    1.0650   42.8620 C.3   240  TYR240      0.1605
    103  C         -8.8300    1.6920   41.4600 C.2   240  TYR240      0.2264
    104  O         -7.7570    1.7580   40.9020 O.2   240  TYR240     -0.2867
    105  CB        -9.0820   -0.4710   42.8260 C.3   240  TYR240      0.0534
    106  CG        -8.0620   -1.2100   42.0080 C.ar  240  TYR240     -0.0201
    107  CD1       -6.7510   -0.7790   41.9320 C.ar  240  TYR240     -0.0009
    108  CD2       -8.4120   -2.3580   41.3030 C.ar  240  TYR240     -0.0009
    109  CE1       -5.8190   -1.4520   41.1600 C.ar  240  TYR240      0.0417
    110  CE2       -7.4740   -3.0490   40.5300 C.ar  240  TYR240      0.0417
    111  CZ        -6.1870   -2.5860   40.4500 C.ar  240  TYR240      0.1957
    112  OH        -5.2330   -3.2580   39.6840 O.3   240  TYR240     -0.2866
    113  N         -7.1190    5.0780   41.9320 N.3   243  TRP243     -0.1227
    114  CA        -5.6910    4.9090   42.2590 C.3   243  TRP243      0.1737
    115  C         -4.8680    4.6010   41.0070 C.2   243  TRP243      0.2596
    116  O         -3.7750    5.1350   40.7810 O.2   243  TRP243     -0.2718
    117  CB        -5.5030    3.7720   43.2820 C.3   243  TRP243      0.0564
    118  CG        -5.9000    4.1440   44.6820 C.ar  243  TRP243      0.0003
    119  CD1       -6.8380    3.5360   45.4660 C.ar  243  TRP243      0.0946
    120  CD2       -5.3580    5.2050   45.4640 C.ar  243  TRP243      0.0152
    121  NE1       -6.9190    4.1650   46.6890 N.ar  243  TRP243     -0.2442
    122  CE2       -6.0200    5.1930   46.7120 C.ar  243  TRP243      0.0810
    123  CE3       -4.3790    6.1750   45.2370 C.ar  243  TRP243      0.0012
    124  CZ2       -5.7510    6.1070   47.7020 C.ar  243  TRP243      0.0191
    125  CZ3       -4.0950    7.0710   46.2440 C.ar  243  TRP243      0.0001
    126  CH2       -4.7840    7.0370   47.4510 C.ar  243  TRP243      0.0015
    127  N         -5.4180    3.6890   40.2140 N.am  244  THR244     -0.1953
    128  CA        -4.8150    3.2400   38.9740 C.3   244  THR244      0.1897
    129  C         -4.6220    4.4080   38.0450 C.2   244  THR244      0.2313
    130  O         -3.5740    4.5290   37.4270 O.2   244  THR244     -0.2863
    131  CB        -5.7070    2.1900   38.3340 C.3   244  THR244      0.1794
    132  OG1       -5.7120    1.0230   39.1680 O.3   244  THR244     -0.2208
    133  CG2       -5.1270    1.7150   37.0210 C.3   244  THR244      0.0378
    134  N         -1.7670    6.9380   39.2370 N.3   247  ILE247     -0.1231
    135  CA        -0.4020    6.4380   38.9750 C.3   247  ILE247      0.1692
    136  C         -0.0560    6.5010   37.4830 C.2   247  ILE247      0.2591
    137  O          1.0540    6.8710   37.1210 O.2   247  ILE247     -0.2718
    138  CB        -0.2070    4.9870   39.5090 C.3   247  ILE247      0.0266
    139  CG1        1.2710    4.6160   39.5830 C.3   247  ILE247      0.0019
    140  CG2       -0.8620    3.9470   38.5840 C.3   247  ILE247      0.0020
    141  CD1        2.0120    4.9890   40.8700 C.3   247  ILE247      0.0001
    142  N         -1.0100    6.1510   36.6210 N.am  248  MET248     -0.1979
    143  CA        -0.7580    6.1660   35.1790 C.3   248  MET248      0.1605
    144  C         -0.3430    7.5460   34.7110 C.2   248  MET248      0.2287
    145  O          0.5560    7.6870   33.8900 O.2   248  MET248     -0.2864
    146  CB        -1.9770    5.6470   34.4240 C.3   248  MET248      0.0413
    147  CG        -2.1220    4.1460   34.5790 C.3   248  MET248      0.0598
    148  SD        -0.5010    3.3180   34.8010 S.3   248  MET248     -0.1393
    149  CE        -1.1440    1.6680   34.9600 C.3   248  MET248      0.0692
    150  N          3.3480    8.0660   36.0360 N.3   251  PHE251     -0.1241
    151  CA         4.2550    7.3100   35.1890 C.3   251  PHE251      0.1605
    152  C          4.3220    7.9990   33.7270 C.2   251  PHE251      0.2264
    153  O          5.3950    8.1650   33.1830 O.2   251  PHE251     -0.2867
    154  CB         3.7440    5.8630   35.0460 C.3   251  PHE251      0.0534
    155  CG         3.9630    4.9520   36.2250 C.ar  251  PHE251     -0.0203
    156  CD1        4.9680    5.1360   37.1420 C.ar  251  PHE251     -0.0042
    157  CD2        3.1450    3.8400   36.3640 C.ar  251  PHE251     -0.0042
    158  CE1        5.1260    4.2470   38.1880 C.ar  251  PHE251     -0.0003
    159  CE2        3.3090    2.9590   37.4060 C.ar  251  PHE251     -0.0003
    160  CZ         4.2940    3.1590   38.3080 C.ar  251  PHE251     -0.0000
    161  N          6.1700    0.9050   30.1890 N.3   268  MET268     -0.1245
    162  CA         5.1620    1.0830   31.2170 C.3   268  MET268      0.1570
    163  C          4.7230    2.5570   31.2830 C.2   268  MET268      0.2261
    164  O          3.5430    2.8680   31.4200 O.2   268  MET268     -0.2867
    165  CB         5.7670    0.6500   32.5760 C.3   268  MET268      0.0387
    166  CG         4.9110   -0.2950   33.4080 C.3   268  MET268      0.0595
    167  SD         3.2320    0.2450   33.4280 S.3   268  MET268     -0.1393
    168  CE         2.8170    0.2690   35.3170 C.3   268  MET268      0.0692
    169  N         -1.7570   -3.2380   31.9740 N.3   279  SER279     -0.1202
    170  CA        -0.7770   -2.9450   33.0430 C.3   279  SER279      0.2020
    171  C         -1.1950   -3.4560   34.4550 C.2   279  SER279      0.2618
    172  O         -0.3570   -3.9230   35.2040 O.2   279  SER279     -0.2717
    173  CB        -0.4320   -1.4390   33.0930 C.3   279  SER279      0.2103
    174  OG        -1.5900   -0.6300   33.2630 O.3   279  SER279     -0.2182
    175  N         -2.4750   -3.3780   34.7920 N.am  280  GLN280     -0.1979
    176  CA        -2.9860   -3.8530   36.0870 C.3   280  GLN280      0.1601
    177  C         -3.1350   -5.3640   36.1610 C.2   280  GLN280      0.2287
    178  O         -3.0190   -5.9420   37.2420 O.2   280  GLN280     -0.2864
    179  CB        -4.3400   -3.2220   36.3980 C.3   280  GLN280      0.0394
    180  CG        -4.3200   -1.7100   36.4500 C.3   280  GLN280      0.0908
    181  CD        -3.1500   -1.1480   37.2360 C.2   280  GLN280      0.2608
    182  OE1       -3.2660   -0.9020   38.4230 O.2   280  GLN280     -0.2717
    183  NE2       -2.0200   -0.9530   36.5730 N.am  280  GLN280     -0.0878
    184  N          0.1400   -6.3760   36.8110 N.3   283  PHE283     -0.1241
    185  CA         0.5210   -5.9110   38.1530 C.3   283  PHE283      0.1605
    186  C         -0.0850   -6.8300   39.1950 C.2   283  PHE283      0.2264
    187  O          0.5160   -7.0720   40.2330 O.2   283  PHE283     -0.2867
    188  CB         0.0390   -4.4720   38.3960 C.3   283  PHE283      0.0534
    189  CG         0.4550   -3.8880   39.7210 C.ar  283  PHE283     -0.0203
    190  CD1        1.7740   -3.9300   40.1460 C.ar  283  PHE283     -0.0042
    191  CD2       -0.4760   -3.2460   40.5250 C.ar  283  PHE283     -0.0042
    192  CE1        2.1460   -3.3650   41.3550 C.ar  283  PHE283     -0.0003
    193  CE2       -0.1050   -2.6810   41.7180 C.ar  283  PHE283     -0.0003
    194  CZ         1.2050   -2.7440   42.1310 C.ar  283  PHE283     -0.0000
    195  N          2.6740   -9.4040   40.7840 N.3   287  ILE287     -0.1245
    196  CA         3.1630   -8.6720   41.9500 C.3   287  ILE287      0.1561
    197  C          2.2250   -8.7030   43.1500 C.2   287  ILE287      0.2260
    198  O          2.5500   -9.3020   44.1710 O.2   287  ILE287     -0.2867
    199  CB         3.4880   -7.2120   41.5630 C.3   287  ILE287      0.0252
    200  CG1        4.5910   -7.2180   40.4970 C.3   287  ILE287      0.0019
    201  CG2        3.8610   -6.3970   42.8160 C.3   287  ILE287      0.0019
    202  CD1        5.3750   -5.9370   40.3490 C.3   287  ILE287      0.0001
@<TRIPOS>BOND
     1   161   162    1
     2   162   163    1
     3   162   165    1
     4   163   164    2
     5   169   170    1
     6   165   166    1
     7   170   173    1
     8   170   171    1
     9   173   174    1
    10   153   152    2
    11   166   167    1
    12   167   168    1
    13   152   151    1
    14   145   144    2
    15   146   147    1
    16   146   143    1
    17   171   175   am
    18   171   172    2
    19   147   148    1
    20   144   143    1
    21   175   176    1
    22   148   149    1
    23   154   151    1
    24   154   155    1
    25   143   142    1
    26   151   150    1
    27   176   177    1
    28   176   179    1
    29   177   178    2
    30   155   157   ar
    31   155   156   ar
    32   157   159   ar
    33   179   180    1
    34   180   181    1
    35   183   181   am
    36   142   136   am
    37   184   185    1
    38   133   131    1
    39   137   136    2
    40   156   158   ar
    41   181   182    2
    42   159   160   ar
    43   130   129    2
    44   136   135    1
    45   129   128    1
    46   185   188    1
    47   185   186    1
    48   158   160   ar
    49   131   128    1
    50   131   132    1
    51   188   189    1
    52   140   138    1
    53   128   127    1
    54   135   134    1
    55   135   138    1
    56   186   187    2
    57   138   139    1
    58   139   141    1
    59   112   111    1
    60   189   190   ar
    61   189   191   ar
    62   190   192   ar
    63   127   115   am
    64   202   200    1
    65   111   110   ar
    66   111   109   ar
    67   200   199    1
    68   191   193   ar
    69   110   108   ar
    70   116   115    2
    71   195   196    1
    72   104   103    2
    73   115   114    1
    74   109   107   ar
    75   108   106   ar
    76   192   194   ar
    77   103   102    1
    78   199   196    1
    79   199   201    1
    80   193   194   ar
    81   113   114    1
    82   107   106   ar
    83   196   197    1
    84   106   105    1
    85   114   117    1
    86     1     2    1
    87     5     6    1
    88     5     2    1
    89   105   102    1
    90   102   101    1
    91     7     6   ar
    92     7     9   ar
    93     6     8   ar
    94     2     3    1
    95   197   198    2
    96   117   118    1
    97    19    21   ar
    98    19    18   ar
    99    21    22   ar
   100     9    11   ar
   101    63    64    1
   102    63    60    1
   103    62    61    2
   104     8    10   ar
   105    66    65    1
   106    41    39   ar
   107    41    42   ar
   108    64    65    1
   109    61    60    1
   110    39    38   ar
   111    13     3   am
   112    13    14    1
   113    11    10   ar
   114    11    12    1
   115     3     4    2
   116   118   120   ar
   117   118   119   ar
   118    60    59    1
   119    18    17    1
   120    18    20   ar
   121    22    20   ar
   122    97    98    1
   123    97    94    1
   124    42    40   ar
   125    17    14    1
   126    36    35    2
   127    96    95    2
   128   123   120   ar
   129   123   125   ar
   130    99    98    2
   131    95    94    1
   132    92    90    1
   133    35    34    1
   134   120   122   ar
   135   119   121   ar
   136    14    15    1
   137    38    40   ar
   138    38    37    1
   139    98   100   am
   140    94    93    1
   141   125   126   ar
   142    37    34    1
   143    91    90    1
   144    15    16    2
   145    34    33    1
   146    90    89    1
   147   121   122   ar
   148   122   124   ar
   149    88    87    2
   150    89    86    1
   151    51    49   ar
   152    50    49   ar
   153    86    87    1
   154    86    85    1
   155   126   124   ar
   156    80    79    2
   157    49    48    1
   158    55    54    2
   159    29    28   ar
   160    29    31   ar
   161    27    28    1
   162    27    24    1
   163    28    30   ar
   164    31    32   ar
   165    75    76   ar
   166    75    73   ar
   167    76    74   ar
   168    32    30   ar
   169    85    79   am
   170    79    78    1
   171    54    53    1
   172    83    82   ar
   173    84    82   ar
   174    43    44    1
   175    24    23    1
   176    24    25    1
   177    82    81    1
   178    73    72   ar
   179    48    47    1
   180    74    72   ar
   181    81    78    1
   182    78    77    1
   183    47    44    1
   184    70    69    2
   185    72    71    1
   186    44    45    1
   187    53    56    1
   188    53    52    1
   189    25    26    2
   190    56    57    1
   191    56    58    1
   192    69    68    1
   193    45    46    2
   194    71    68    1
   195    68    67    1
