@<TRIPOS>MOLECULE
tmp/1y2wA01.pdb
 86 82 0 0 0
SMALL
GASTEIGER

@<TRIPOS>ATOM
      1  N         53.7720   31.6560   40.3190 N.3    78  ASP78      -0.1225
      2  CA        54.2290   30.5430   41.1390 C.3    78  ASP78       0.1805
      3  C         54.2640   29.2620   40.3150 C.2    78  ASP78       0.2598
      4  O         53.5740   29.1470   39.2950 O.2    78  ASP78      -0.2718
      5  CB        53.3280   30.3570   42.3690 C.3    78  ASP78       0.1424
      6  CG        53.9440   29.4310   43.4070 C.2    78  ASP78       0.3668
      7  OD1       53.1940   28.6710   44.0620 O.co2  78  ASP78      -0.2456
      8  OD2       55.1730   29.3910   43.6250 O.co2  78  ASP78      -0.2456
      9  N         55.0890   28.3160   40.7560 N.am   79  ILE79      -0.1966
     10  CA        55.1160   26.9690   40.1930 C.3    79  ILE79       0.1727
     11  C         54.9940   25.9600   41.3270 C.2    79  ILE79       0.2616
     12  O         55.6500   26.0950   42.3640 O.2    79  ILE79      -0.2715
     13  CB        56.4130   26.7090   39.3720 C.3    79  ILE79       0.0290
     14  CG1       56.5800   27.7500   38.2630 C.3    79  ILE79       0.0022
     15  CG2       56.3990   25.2950   38.7800 C.3    79  ILE79       0.0023
     16  CD1       57.9570   27.7690   37.6190 C.3    79  ILE79       0.0001
     17  N         54.1290   24.9690   41.1280 N.am   80  VAL80      -0.1963
     18  CA        54.0090   23.8390   42.0380 C.3    80  VAL80       0.1727
     19  C         54.3240   22.5730   41.2520 C.2    80  VAL80       0.2617
     20  O         53.8050   22.3650   40.1530 O.2    80  VAL80      -0.2715
     21  CB        52.5970   23.7400   42.6820 C.3    80  VAL80       0.0290
     22  CG1       52.5210   22.5710   43.6600 C.3    80  VAL80       0.0023
     23  CG2       52.2350   25.0370   43.3980 C.3    80  VAL80       0.0023
     24  N         55.1910   21.7430   41.8180 N.am   81  THR81      -0.1937
     25  CA        55.5390   20.4640   41.2160 C.3    81  THR81       0.2028
     26  C         55.5070   19.3520   42.2780 C.2    81  THR81       0.2642
     27  O         54.9860   19.5680   43.3760 O.2    81  THR81      -0.2714
     28  CB        56.8890   20.5750   40.4510 C.3    81  THR81       0.1808
     29  OG1       57.1660   19.3450   39.7720 O.3    81  THR81      -0.2208
     30  CG2       58.0650   20.7630   41.4130 C.3    81  THR81       0.0379
     31  N         56.0410   18.1720   41.9540 N.am   82  ASN82      -0.1971
     32  CA        55.8690   16.9750   42.7880 C.3    82  ASN82       0.1688
     33  C         54.3880   16.7280   43.0730 C.2    82  ASN82       0.2292
     34  O         53.9950   16.4070   44.2000 O.2    82  ASN82      -0.2864
     35  CB        56.6660   17.0820   44.0970 C.3    82  ASN82       0.1181
     36  CG        58.1500   17.2810   43.8650 C.2    82  ASN82       0.2629
     37  OD1       58.7220   16.7500   42.9130 O.2    82  ASN82      -0.2716
     38  ND2       58.7850   18.0420   44.7460 N.am   82  ASN82      -0.0877
     39  N         50.6560   29.0710   52.5500 N.3   101  ILE101     -0.1231
     40  CA        51.8880   29.0250   51.7470 C.3   101  ILE101      0.1692
     41  C         51.6600   29.5080   50.3120 C.2   101  ILE101      0.2591
     42  O         52.5310   30.1540   49.7250 O.2   101  ILE101     -0.2718
     43  CB        52.5690   27.6220   51.7710 C.3   101  ILE101      0.0266
     44  CG1       51.6280   26.5270   51.2490 C.3   101  ILE101      0.0019
     45  CG2       53.0970   27.2990   53.1700 C.3   101  ILE101      0.0020
     46  CD1       52.3430   25.3770   50.5630 C.3   101  ILE101      0.0001
     47  N         50.4860   29.2050   49.7610 N.am  102  ARG102     -0.1980
     48  CA        50.1340   29.6500   48.4130 C.3   102  ARG102      0.1597
     49  C         49.8080   31.1390   48.4140 C.2   102  ARG102      0.2287
     50  O         50.2650   31.8740   47.5400 O.2   102  ARG102     -0.2864
     51  CB        48.9650   28.8400   47.8470 C.3   102  ARG102      0.0334
     52  CG        49.2020   27.3350   47.7970 C.3   102  ARG102      0.0492
     53  CD        49.2910   26.7530   46.3900 C.3   102  ARG102      0.2205
     54  NE        49.1690   25.2940   46.4120 N.pl3 102  ARG102     -0.0865
     55  CZ        50.1790   24.4510   46.6160 C.cat 102  ARG102      0.5346
     56  NH1       51.4120   24.9030   46.8090 N.pl3 102  ARG102      0.1354
     57  NH2       49.9550   23.1440   46.6280 N.pl3 102  ARG102      0.1354
     58  N         53.0000   33.0880   48.3270 N.3   105  ALA105     -0.1245
     59  CA        53.5830   33.1010   46.9830 C.3   105  ALA105      0.1562
     60  C         52.9700   34.2040   46.1250 C.2   105  ALA105      0.2260
     61  O         53.6880   34.9430   45.4480 O.2   105  ALA105     -0.2867
     62  CB        53.4140   31.7420   46.3130 C.3   105  ALA105      0.0290
     63  N         60.2790   33.4140   39.2230 N.3   113  TYR113     -0.1241
     64  CA        60.2710   32.3420   40.2070 C.3   113  TYR113      0.1605
     65  C         60.7570   31.0360   39.5920 C.2   113  TYR113      0.2264
     66  O         60.4180   30.7190   38.4490 O.2   113  TYR113     -0.2867
     67  CB        58.8720   32.1420   40.8050 C.3   113  TYR113      0.0534
     68  CG        58.8460   31.0680   41.8670 C.ar  113  TYR113     -0.0201
     69  CD1       59.4040   31.3010   43.1240 C.ar  113  TYR113     -0.0009
     70  CD2       58.3020   29.8090   41.6070 C.ar  113  TYR113     -0.0009
     71  CE1       59.4080   30.3240   44.0970 C.ar  113  TYR113      0.0417
     72  CE2       58.3010   28.8130   42.5820 C.ar  113  TYR113      0.0417
     73  CZ        58.8560   29.0860   43.8260 C.ar  113  TYR113      0.1957
     74  OH        58.8730   28.1290   44.8040 O.3   113  TYR113     -0.2866
     75  N         61.5780   26.6570   40.6720 N.3   115  VAL115     -0.1231
     76  CA        61.5480   25.5300   41.5970 C.3   115  VAL115      0.1692
     77  C         61.8680   24.2390   40.8480 C.2   115  VAL115      0.2591
     78  O         61.5790   24.1160   39.6530 O.2   115  VAL115     -0.2718
     79  CB        60.1950   25.4340   42.3750 C.3   115  VAL115      0.0266
     80  CG1       59.0490   24.9620   41.4750 C.3   115  VAL115      0.0020
     81  CG2       60.3330   24.5470   43.6070 C.3   115  VAL115      0.0020
     82  N         62.4840   23.2920   41.5490 N.am  116  ALA116     -0.1980
     83  CA        62.8110   22.0000   40.9610 C.3   116  ALA116      0.1597
     84  C         61.9660   20.8810   41.5630 C.2   116  ALA116      0.2287
     85  O         61.5400   20.9630   42.7200 O.2   116  ALA116     -0.2864
     86  CB        64.2980   21.7030   41.1220 C.3   116  ALA116      0.0319
@<TRIPOS>BOND
     1    16    14    1
     2    14    13    1
     3    66    65    2
     4    15    13    1
     5    63    64    1
     6     4     3    2
     7    13    10    1
     8    65    64    1
     9    78    77    2
    10    29    28    1
    11    20    19    2
    12    10     9    1
    13    10    11    1
    14    64    67    1
    15     3     9   am
    16     3     2    1
    17     1     2    1
    18    28    25    1
    19    28    30    1
    20    75    76    1
    21    67    68    1
    22    77    82   am
    23    77    76    1
    24    83    86    1
    25    83    82    1
    26    83    84    1
    27    17    11   am
    28    17    18    1
    29     2     5    1
    30    25    24    1
    31    25    26    1
    32    19    24   am
    33    19    18    1
    34    11    12    2
    35    80    79    1
    36    84    85    2
    37    76    79    1
    38    70    68   ar
    39    70    72   ar
    40    68    69   ar
    41    31    26   am
    42    31    32    1
    43    18    21    1
    44    26    27    2
    45     5     6    1
    46    79    81    1
    47    72    73   ar
    48    21    23    1
    49    21    22    1
    50    32    33    1
    51    32    35    1
    52    37    36    2
    53    33    34    2
    54    69    71   ar
    55     6     8   ar
    56     6     7   ar
    57    73    71   ar
    58    73    74    1
    59    36    35    1
    60    36    38   am
    61    61    60    2
    62    60    59    1
    63    62    59    1
    64    53    54    1
    65    53    52    1
    66    54    55    2
    67    55    57    1
    68    55    56    1
    69    59    58    1
    70    50    49    2
    71    52    51    1
    72    51    48    1
    73    48    49    1
    74    48    47    1
    75    42    41    2
    76    47    41   am
    77    41    40    1
    78    46    44    1
    79    44    43    1
    80    40    43    1
    81    40    39    1
    82    43    45    1
