@<TRIPOS>MOLECULE
tmp/1y2wA00.pdb
 88 87 0 0 0
SMALL
GASTEIGER

@<TRIPOS>ATOM
      1  N         37.6670   35.5600   40.9080 N.3    27  TYR27      -0.1227
      2  CA        37.7350   36.9490   41.3770 C.3    27  TYR27       0.1736
      3  C         37.9310   37.9320   40.2190 C.2    27  TYR27       0.2595
      4  O         38.2860   37.5310   39.1090 O.2    27  TYR27      -0.2718
      5  CB        38.8660   37.1240   42.4030 C.3    27  TYR27       0.0548
      6  CG        38.6280   36.4950   43.7680 C.ar   27  TYR27      -0.0200
      7  CD1       39.6100   36.5670   44.7560 C.ar   27  TYR27      -0.0009
      8  CD2       37.4340   35.8310   44.0750 C.ar   27  TYR27      -0.0009
      9  CE1       39.4170   35.9970   46.0120 C.ar   27  TYR27       0.0417
     10  CE2       37.2300   35.2540   45.3350 C.ar   27  TYR27       0.0417
     11  CZ        38.2270   35.3460   46.2970 C.ar   27  TYR27       0.1957
     12  OH        38.0490   34.7820   47.5410 O.3    27  TYR27      -0.2866
     13  N         37.6840   39.2150   40.4890 N.am   28  ALA28      -0.1966
     14  CA        37.9030   40.2980   39.5260 C.3    28  ALA28       0.1728
     15  C         37.2580   40.0510   38.1590 C.2    28  ALA28       0.2616
     16  O         37.8840   40.2630   37.1180 O.2    28  ALA28      -0.2715
     17  CB        39.4020   40.6080   39.3850 C.3    28  ALA28       0.0334
     18  N         36.0030   39.6000   38.1840 N.am   29  ASN29      -0.1972
     19  CA        35.2120   39.3240   36.9770 C.3    29  ASN29       0.1688
     20  C         35.7380   38.1610   36.1170 C.2    29  ASN29       0.2292
     21  O         35.4040   38.0420   34.9330 O.2    29  ASN29      -0.2864
     22  CB        34.9990   40.6010   36.1470 C.3    29  ASN29       0.1181
     23  CG        34.5190   41.7700   36.9950 C.2    29  ASN29       0.2629
     24  OD1       33.5190   41.6630   37.7030 O.2    29  ASN29      -0.2716
     25  ND2       35.2440   42.8820   36.9410 N.am   29  ASN29      -0.0877
     26  N         42.4790   43.5460   38.5920 N.3    47  SER47      -0.1202
     27  CA        43.4780   43.0800   39.5460 C.3    47  SER47       0.2020
     28  C         42.8160   42.2180   40.6190 C.2    47  SER47       0.2619
     29  O         41.7280   42.5430   41.1010 O.2    47  SER47      -0.2717
     30  CB        44.1950   44.2730   40.1910 C.3    47  SER47       0.2103
     31  OG        45.0500   43.8550   41.2450 O.3    47  SER47      -0.2182
     32  N         43.4730   41.1200   40.9830 N.am   48  GLY48      -0.1956
     33  CA        43.0250   40.2890   42.0850 C.3    48  GLY48       0.1869
     34  C         42.6400   38.8660   41.7360 C.2    48  GLY48       0.2309
     35  O         42.0720   38.1540   42.5650 O.2    48  GLY48      -0.2863
     36  N         48.1270   40.7890   41.7250 N.3    71  HIS71      -0.1226
     37  CA        47.7300   41.0090   43.1120 C.3    71  HIS71       0.1752
     38  C         48.0560   42.4430   43.5080 C.2    71  HIS71       0.2596
     39  O         49.2080   42.8670   43.4210 O.2    71  HIS71      -0.2718
     40  CB        48.4470   40.0320   44.0490 C.3    71  HIS71       0.0759
     41  CG        48.2630   40.3490   45.5010 C.ar   71  HIS71       0.0818
     42  ND1       47.0910   40.0860   46.1780 N.ar   71  HIS71      -0.2268
     43  CD2       49.0970   40.9210   46.4020 C.ar   71  HIS71       0.1154
     44  CE1       47.2140   40.4760   47.4350 C.ar   71  HIS71       0.1986
     45  NE2       48.4220   40.9850   47.5980 N.ar   71  HIS71      -0.2212
     46  N         47.0390   43.1800   43.9510 N.am   72  ASN72      -0.1960
     47  CA        47.1890   44.5990   44.2800 C.3    72  ASN72       0.1819
     48  C         47.9670   45.3600   43.2090 C.2    72  ASN72       0.2621
     49  O         48.9240   46.0840   43.5080 O.2    72  ASN72      -0.2715
     50  CB        47.8280   44.7780   45.6640 C.3    72  ASN72       0.1195
     51  CG        46.8760   44.4340   46.7970 C.2    72  ASN72       0.2630
     52  OD1       45.6670   44.3010   46.5950 O.2    72  ASN72      -0.2716
     53  ND2       47.4200   44.2850   47.9980 N.am   72  ASN72      -0.0877
     54  N         47.5540   45.1520   41.9570 N.am   73  TYR73      -0.1974
     55  CA        48.0720   45.8680   40.7870 C.3    73  TYR73       0.1639
     56  C         49.5340   45.5460   40.4360 C.2    73  TYR73       0.2290
     57  O         50.1760   46.2790   39.6840 O.2    73  TYR73      -0.2864
     58  CB        47.8120   47.3810   40.9100 C.3    73  TYR73       0.0560
     59  CG        46.3340   47.7050   40.9660 C.ar   73  TYR73      -0.0198
     60  CD1       45.6250   47.6380   42.1680 C.ar   73  TYR73      -0.0009
     61  CD2       45.6340   48.0440   39.8100 C.ar   73  TYR73      -0.0009
     62  CE1       44.2570   47.9170   42.2160 C.ar   73  TYR73       0.0417
     63  CE2       44.2680   48.3270   39.8490 C.ar   73  TYR73       0.0417
     64  CZ        43.5890   48.2600   41.0540 C.ar   73  TYR73       0.1957
     65  OH        42.2380   48.5380   41.0950 O.3    73  TYR73      -0.2866
     66  N         44.0520   31.2460   47.2510 N.3    97  TYR97      -0.1241
     67  CA        43.0530   32.0920   47.8980 C.3    97  TYR97       0.1605
     68  C         42.4950   31.4220   49.1560 C.2    97  TYR97       0.2264
     69  O         41.2840   31.2090   49.2900 O.2    97  TYR97      -0.2867
     70  CB        41.9580   32.5040   46.8940 C.3    97  TYR97       0.0534
     71  CG        42.5470   33.1410   45.6490 C.ar   97  TYR97      -0.0201
     72  CD1       42.8980   32.3640   44.5420 C.ar   97  TYR97      -0.0009
     73  CD2       42.8040   34.5130   45.5990 C.ar   97  TYR97      -0.0009
     74  CE1       43.4720   32.9380   43.4160 C.ar   97  TYR97       0.0417
     75  CE2       43.3720   35.1000   44.4710 C.ar   97  TYR97       0.0417
     76  CZ        43.7010   34.3060   43.3850 C.ar   97  TYR97       0.1957
     77  OH        44.2620   34.8780   42.2670 O.3    97  TYR97      -0.2866
     78  N         51.6440   34.3130   46.1710 N.3   106  ARG106     -0.1245
     79  CA        50.9180   35.3730   45.4720 C.3   106  ARG106      0.1563
     80  C         51.2820   36.7610   46.0060 C.2   106  ARG106      0.2260
     81  O         51.5580   37.6800   45.2260 O.2   106  ARG106     -0.2867
     82  CB        49.4060   35.1260   45.5560 C.3   106  ARG106      0.0307
     83  CG        48.5360   36.3030   45.1170 C.3   106  ARG106      0.0489
     84  CD        47.0280   36.0320   45.1440 C.3   106  ARG106      0.2205
     85  NE        46.5820   35.3990   46.3860 N.pl3 106  ARG106     -0.0865
     86  CZ        46.3640   36.0360   47.5340 C.cat 106  ARG106      0.5346
     87  NH1       46.5460   37.3470   47.6290 N.pl3 106  ARG106      0.1354
     88  NH2       45.9580   35.3550   48.5980 N.pl3 106  ARG106      0.1354
@<TRIPOS>BOND
     1    21    20    2
     2    20    19    1
     3    22    19    1
     4    22    23    1
     5    25    23   am
     6    19    18    1
     7    23    24    2
     8    16    15    2
     9    15    18   am
    10    15    14    1
    11    26    27    1
    12     4     3    2
    13    17    14    1
    14    14    13    1
    15    27    30    1
    16    27    28    1
    17    57    56    2
    18    61    63   ar
    19    61    59   ar
    20    63    64   ar
    21    30    31    1
    22     3    13   am
    23     3     2    1
    24    56    55    1
    25    28    32   am
    26    28    29    2
    27    55    58    1
    28    55    54    1
    29     1     2    1
    30    58    59    1
    31    59    60   ar
    32    32    33    1
    33    64    65    1
    34    64    62   ar
    35     2     5    1
    36    36    37    1
    37    34    33    1
    38    34    35    2
    39    54    48   am
    40    60    62   ar
    41    77    76    1
    42     5     6    1
    43    37    38    1
    44    37    40    1
    45    48    49    2
    46    48    47    1
    47    76    74   ar
    48    76    75   ar
    49    74    72   ar
    50    39    38    2
    51    38    46   am
    52     6     8   ar
    53     6     7   ar
    54    46    47    1
    55    40    41    1
    56     8    10   ar
    57    47    50    1
    58    75    73   ar
    59    72    71   ar
    60     7     9   ar
    61    83    84    1
    62    83    82    1
    63    84    85    1
    64    81    80    2
    65    10    11   ar
    66    79    82    1
    67    79    80    1
    68    79    78    1
    69    41    42   ar
    70    41    43   ar
    71    73    71   ar
    72    71    70    1
    73    50    51    1
    74     9    11   ar
    75    42    44   ar
    76    11    12    1
    77    85    86    2
    78    43    45   ar
    79    52    51    2
    80    51    53   am
    81    70    67    1
    82    66    67    1
    83    44    45   ar
    84    86    87    1
    85    86    88    1
    86    67    68    1
    87    68    69    2
