@<TRIPOS>MOLECULE
tmp/1y30A00.pdb
 104 100 0 0 0
SMALL
GASTEIGER

@<TRIPOS>ATOM
      1  N         15.2910   37.7770   55.3520 N.3    28  GLN28      -0.1231
      2  CA        14.6550   36.4640   55.3530 C.3    28  GLN28       0.1698
      3  C         15.3840   35.7010   54.2510 C.2    28  GLN28       0.2592
      4  O         15.5590   36.2240   53.1470 O.2    28  GLN28      -0.2718
      5  CB        13.1610   36.6020   55.0470 C.3    28  GLN28       0.0381
      6  CG        12.3750   35.3090   55.1630 C.3    28  GLN28       0.0905
      7  CD        12.3070   34.5420   53.8560 C.2    28  GLN28       0.2608
      8  OE1       11.8890   33.3850   53.8290 O.2    28  GLN28      -0.2717
      9  NE2       12.7020   35.1880   52.7600 N.am   28  GLN28      -0.0878
     10  N         15.8110   34.4730   54.5390 N.am   29  LEU29      -0.1966
     11  CA        16.5750   33.6950   53.5620 C.3    29  LEU29       0.1728
     12  C         16.0000   32.3530   53.1210 C.2    29  LEU29       0.2617
     13  O         15.3650   31.6380   53.8940 O.2    29  LEU29      -0.2715
     14  CB        17.9860   33.4470   54.0980 C.3    29  LEU29       0.0311
     15  CG        18.7780   34.6440   54.6180 C.3    29  LEU29       0.0022
     16  CD1       20.0310   34.1310   55.3330 C.3    29  LEU29       0.0001
     17  CD2       19.1380   35.5820   53.4630 C.3    29  LEU29       0.0001
     18  N         16.2700   32.0100   51.8660 N.am   30  SER30      -0.1936
     19  CA        15.8170   30.7570   51.2890 C.3    30  SER30       0.2055
     20  C         16.5570   30.5350   49.9790 C.2    30  SER30       0.2643
     21  O         17.1340   31.4700   49.4250 O.2    30  SER30      -0.2714
     22  CB        14.3170   30.8160   51.0130 C.3    30  SER30       0.2130
     23  OG        14.0170   31.8950   50.1470 O.3    30  SER30      -0.2179
     24  N         16.5660   29.3000   49.4890 N.am   31  ASN31      -0.1957
     25  CA        17.2140   29.0520   48.2230 C.3    31  ASN31       0.1819
     26  C         16.1530   28.9670   47.1330 C.2    31  ASN31       0.2621
     27  O         14.9860   28.6640   47.4030 O.2    31  ASN31      -0.2715
     28  CB        18.1030   27.7860   48.2560 C.3    31  ASN31       0.1195
     29  CG        17.4020   26.5650   48.8210 C.2    31  ASN31       0.2630
     30  OD1       16.1780   26.4790   48.8420 O.2    31  ASN31      -0.2716
     31  ND2       18.1930   25.5960   49.2640 N.am   31  ASN31      -0.0877
     32  N         16.5550   29.2840   45.9070 N.am   32  VAL32      -0.1963
     33  CA        15.6500   29.2470   44.7690 C.3    32  VAL32       0.1727
     34  C         16.3800   28.7840   43.5180 C.2    32  VAL32       0.2616
     35  O         17.5900   28.9550   43.3960 O.2    32  VAL32      -0.2715
     36  CB        15.0730   30.6410   44.4570 C.3    32  VAL32       0.0290
     37  CG1       14.2410   31.1520   45.6370 C.3    32  VAL32       0.0023
     38  CG2       16.2160   31.6040   44.1340 C.3    32  VAL32       0.0023
     39  N         15.6320   28.1950   42.5910 N.am   33  GLN33      -0.1977
     40  CA        16.1910   27.7600   41.3180 C.3    33  GLN33       0.1601
     41  C         15.9700   28.9850   40.4490 C.2    33  GLN33       0.2287
     42  O         14.9940   29.7080   40.6470 O.2    33  GLN33      -0.2864
     43  CB        15.3930   26.5810   40.7600 C.3    33  GLN33       0.0394
     44  CG        16.0930   25.8250   39.6430 C.3    33  GLN33       0.0908
     45  CD        15.3870   24.5200   39.2980 C.2    33  GLN33       0.2608
     46  OE1       15.9760   23.6300   38.6810 O.2    33  GLN33      -0.2717
     47  NE2       14.1220   24.4030   39.6920 N.am   33  GLN33      -0.0878
     48  N         12.8220   33.6920   38.5000 N.3    45  VAL45      -0.1231
     49  CA        12.5160   32.5940   39.4090 C.3    45  VAL45       0.1692
     50  C         11.0090   32.4500   39.6230 C.2    45  VAL45       0.2593
     51  O         10.2500   33.4110   39.4910 O.2    45  VAL45      -0.2718
     52  CB        13.1940   32.7820   40.7880 C.3    45  VAL45       0.0266
     53  CG1       14.6430   33.2390   40.6100 C.3    45  VAL45       0.0020
     54  CG2       12.4150   33.7630   41.6270 C.3    45  VAL45       0.0020
     55  N         10.5840   31.2370   39.9480 N.am   46  SER46      -0.1938
     56  CA         9.1780   30.9530   40.1910 C.3    46  SER46       0.2055
     57  C          8.9640   30.8230   41.6940 C.2    46  SER46       0.2642
     58  O          9.7580   30.1740   42.3730 O.2    46  SER46      -0.2714
     59  CB         8.7880   29.6450   39.4890 C.3    46  SER46       0.2130
     60  OG         7.5160   29.1980   39.9120 O.3    46  SER46      -0.2179
     61  N          7.9080   31.4500   42.2150 N.am   47  ILE47      -0.1977
     62  CA         7.6010   31.3820   43.6500 C.3    47  ILE47       0.1596
     63  C          6.1000   31.2550   43.8990 C.2    47  ILE47       0.2287
     64  O          5.3000   31.4140   42.9760 O.2    47  ILE47      -0.2864
     65  CB         8.1210   32.6230   44.3980 C.3    47  ILE47       0.0276
     66  CG1        7.6210   33.8920   43.6970 C.3    47  ILE47       0.0022
     67  CG2        9.6440   32.5710   44.4830 C.3    47  ILE47       0.0022
     68  CD1        8.1310   35.1820   44.2960 C.3    47  ILE47       0.0001
     69  N          3.9510   31.8270   50.1820 N.3    51  ARG51      -0.1231
     70  CA         5.2760   31.7270   50.7960 C.3    51  ARG51       0.1694
     71  C          5.7460   33.0510   51.3870 C.2    51  ARG51       0.2592
     72  O          5.4290   34.1280   50.8730 O.2    51  ARG51      -0.2718
     73  CB         6.2990   31.2200   49.7740 C.3    51  ARG51       0.0321
     74  CG         5.9980   29.8210   49.2230 C.3    51  ARG51       0.0489
     75  CD         6.3300   28.7220   50.2330 C.3    51  ARG51       0.2205
     76  NE         5.7230   28.9690   51.5390 N.pl3  51  ARG51      -0.0865
     77  CZ         5.9240   28.2200   52.6210 C.cat  51  ARG51       0.5346
     78  NH1        5.3260   28.5320   53.7660 N.pl3  51  ARG51       0.1354
     79  NH2        6.7180   27.1570   52.5640 N.pl3  51  ARG51       0.1354
     80  N          6.5080   32.9590   52.4730 N.am   52  ALA52      -0.1966
     81  CA         7.0350   34.1310   53.1620 C.3    52  ALA52       0.1728
     82  C          7.7680   35.1070   52.2320 C.2    52  ALA52       0.2616
     83  O          7.4820   36.3050   52.2230 O.2    52  ALA52      -0.2715
     84  CB         7.9670   33.6860   54.2900 C.3    52  ALA52       0.0334
     85  N          8.7150   34.5860   51.4590 N.am   53  LYS53      -0.1977
     86  CA         9.4950   35.4000   50.5330 C.3    53  LYS53       0.1596
     87  C          8.5780   36.2150   49.6210 C.2    53  LYS53       0.2287
     88  O          8.8650   37.3660   49.3190 O.2    53  LYS53      -0.2864
     89  CB        10.3930   34.5040   49.6710 C.3    53  LYS53       0.0298
     90  CG         9.6390   33.7900   48.5550 C.3    53  LYS53       0.0038
     91  CD        10.5000   32.7800   47.8130 C.3    53  LYS53       0.0206
     92  CE        10.6300   31.4890   48.5920 C.3    53  LYS53       0.1093
     93  NZ        11.3490   30.4850   47.7810 N.3    53  LYS53      -0.1314
     94  N          1.1970   30.3130   41.6220 N.3   125  ARG125     -0.1245
     95  CA         2.5650   30.5970   41.2230 C.3   125  ARG125      0.1563
     96  C          2.7360   31.9980   40.6470 C.2   125  ARG125      0.2260
     97  O          1.8770   32.5120   39.9240 O.2   125  ARG125     -0.2867
     98  CB         3.0390   29.5500   40.2110 C.3   125  ARG125      0.0307
     99  CG         3.4800   28.2310   40.8510 C.3   125  ARG125      0.0489
    100  CD         4.8240   28.4000   41.5480 C.3   125  ARG125      0.2205
    101  NE         5.2030   27.2400   42.3450 N.pl3 125  ARG125     -0.0865
    102  CZ         6.3700   27.1170   42.9740 C.cat 125  ARG125      0.5346
    103  NH1        7.2760   28.0830   42.8950 N.pl3 125  ARG125      0.1354
    104  NH2        6.6290   26.0330   43.6930 N.pl3 125  ARG125      0.1354
@<TRIPOS>BOND
     1    48    49    1
     2    46    45    2
     3    45    44    1
     4    45    47   am
     5    49    50    1
     6    49    52    1
     7    59    60    1
     8    59    56    1
     9    51    50    2
    10    50    55   am
    11    44    43    1
    12    97    96    2
    13    55    56    1
    14    56    57    1
    15    98    99    1
    16    98    95    1
    17    41    42    2
    18    41    40    1
    19    53    52    1
    20    96    95    1
    21    43    40    1
    22    52    54    1
    23    99   100    1
    24    95    94    1
    25    40    39    1
    26   100   101    1
    27    57    61   am
    28    57    58    2
    29    61    62    1
    30   101   102    2
    31    39    34   am
    32   103   102    1
    33   102   104    1
    34    64    63    2
    35    35    34    2
    36    34    33    1
    37    62    63    1
    38    62    65    1
    39    66    68    1
    40    66    65    1
    41    38    36    1
    42    65    67    1
    43    36    33    1
    44    36    37    1
    45    33    32    1
    46    32    26   am
    47    26    27    2
    48    26    25    1
    49    93    92    1
    50    91    90    1
    51    91    92    1
    52    25    28    1
    53    25    24    1
    54    28    29    1
    55    90    89    1
    56    29    30    2
    57    29    31   am
    58    74    73    1
    59    74    75    1
    60    88    87    2
    61    21    20    2
    62    24    20   am
    63    87    86    1
    64    89    86    1
    65    73    70    1
    66    20    19    1
    67    23    22    1
    68    69    70    1
    69    75    76    1
    70    86    85    1
    71    70    71    1
    72    72    71    2
    73    22    19    1
    74    19    18    1
    75    71    80   am
    76    85    82   am
    77    76    77    2
    78    18    12   am
    79    83    82    2
    80    82    81    1
    81    80    81    1
    82    79    77    1
    83    77    78    1
    84     9     7   am
    85    12    11    1
    86    12    13    2
    87     4     3    2
    88    81    84    1
    89    17    15    1
    90    11    14    1
    91    11    10    1
    92     8     7    2
    93     7     6    1
    94    14    15    1
    95     3    10   am
    96     3     2    1
    97    15    16    1
    98     5     6    1
    99     5     2    1
   100     1     2    1
