@<TRIPOS>MOLECULE
tmp/1y38B00.pdb
 133 132 0 0 0
SMALL
GASTEIGER

@<TRIPOS>ATOM
      1  N         12.9590   19.1730    9.3610 N.3     2  LEU2       -0.1245
      2  CA        11.6080   19.6690    9.5460 C.3     2  LEU2        0.1561
      3  C         10.5340   18.6450    9.2020 C.2     2  LEU2        0.2260
      4  O          9.3990   18.7480    9.6580 O.2     2  LEU2       -0.2867
      5  CB        11.4040   20.9380    8.7180 C.3     2  LEU2        0.0270
      6  CG        11.1590   22.1790    9.5830 C.3     2  LEU2        0.0019
      7  CD1       12.4680   22.6000   10.2710 C.3     2  LEU2        0.0001
      8  CD2       10.6110   23.3070    8.7200 C.3     2  LEU2        0.0001
      9  N         10.1790   16.8940   12.4520 N.3     5  PHE5       -0.1227
     10  CA         9.6250   17.8480   13.4070 C.3     5  PHE5        0.1736
     11  C          8.1380   18.0620   13.1410 C.2     5  PHE5        0.2596
     12  O          7.3300   18.1130   14.0650 O.2     5  PHE5       -0.2718
     13  CB        10.3960   19.1720   13.3170 C.3     5  PHE5        0.0547
     14  CG         9.9570   20.2090   14.3180 C.ar    5  PHE5       -0.0202
     15  CD1        9.5510   19.8400   15.6000 C.ar    5  PHE5       -0.0042
     16  CD2        9.9690   21.5620   13.9840 C.ar    5  PHE5       -0.0042
     17  CE1        9.1620   20.8070   16.5320 C.ar    5  PHE5       -0.0003
     18  CE2        9.5820   22.5360   14.9110 C.ar    5  PHE5       -0.0003
     19  CZ         9.1780   22.1590   16.1840 C.ar    5  PHE5       -0.0000
     20  N          7.7790   18.1620   11.8670 N.am    6  GLY6       -0.1957
     21  CA         6.3890   18.3580   11.5150 C.3     6  GLY6        0.1869
     22  C          5.5590   17.1420   11.8580 C.2     6  GLY6        0.2309
     23  O          4.3850   17.2580   12.2000 O.2     6  GLY6       -0.2863
     24  N          4.8310   17.1340   15.5940 N.3     9  ILE9       -0.1245
     25  CA         3.8280   18.1590   15.8480 C.3     9  ILE9        0.1561
     26  C          2.4240   17.6560   15.5630 C.2     9  ILE9        0.2260
     27  O          1.5320   17.8000   16.4000 O.2     9  ILE9       -0.2867
     28  CB         4.0910   19.4260   15.0120 C.3     9  ILE9        0.0252
     29  CG1        5.3980   20.0800   15.4750 C.3     9  ILE9        0.0019
     30  CG2        2.9160   20.3860   15.1370 C.3     9  ILE9        0.0019
     31  CD1        5.7070   21.4210   14.8240 C.3     9  ILE9        0.0001
     32  N          1.7500   21.4340   11.2070 N.3    17  ALA17      -0.1231
     33  CA         2.8710   22.3380   11.4320 C.3    17  ALA17       0.1694
     34  C          2.4800   23.5480   10.6180 C.2    17  ALA17       0.2591
     35  O          2.4960   24.6820   11.0930 O.2    17  ALA17      -0.2718
     36  CB         4.1470   21.7360   10.9070 C.3    17  ALA17       0.0304
     37  N          2.1090   23.3340    9.3690 N.am   18  ILE18      -0.1980
     38  CA         1.6920   24.5250    8.6310 C.3    18  ILE18       0.1595
     39  C          0.1010   24.5560    8.7640 C.2    18  ILE18       0.2287
     40  O         -0.5280   23.5560    8.5350 O.2    18  ILE18      -0.2864
     41  CB         2.2240   24.3970    7.1540 C.3    18  ILE18       0.0276
     42  CG1        3.6600   24.9670    7.1490 C.3    18  ILE18       0.0022
     43  CG2        1.3710   25.1810    6.2150 C.3    18  ILE18       0.0022
     44  CD1        4.5730   24.4290    6.0520 C.3    18  ILE18       0.0001
     45  N          1.2300   26.3730   13.4080 N.3    21  TYR21      -0.1227
     46  CA         2.4330   26.8160   14.1210 C.3    21  TYR21       0.1736
     47  C          3.4800   27.5230   13.2750 C.2    21  TYR21       0.2596
     48  O          4.6320   27.6460   13.6890 O.2    21  TYR21      -0.2718
     49  CB         3.0920   25.6320   14.8300 C.3    21  TYR21       0.0548
     50  CG         2.2640   25.0450   15.9370 C.ar   21  TYR21      -0.0200
     51  CD1        2.2800   25.5950   17.2220 C.ar   21  TYR21      -0.0009
     52  CD2        1.4720   23.9240   15.7110 C.ar   21  TYR21      -0.0009
     53  CE1        1.5290   25.0300   18.2600 C.ar   21  TYR21       0.0417
     54  CE2        0.7140   23.3540   16.7340 C.ar   21  TYR21       0.0417
     55  CZ         0.7490   23.9050   18.0030 C.ar   21  TYR21       0.1957
     56  OH        -0.0090   23.3360   19.0020 O.3    21  TYR21      -0.2866
     57  N          3.0870   27.9880   12.0970 N.am   22  SER22      -0.1952
     58  CA         4.0220   28.6750   11.2110 C.3    22  SER22       0.1924
     59  C          3.8050   30.1890   11.1300 C.2    22  SER22       0.2314
     60  O          4.6380   30.8990   10.5870 O.2    22  SER22      -0.2863
     61  CB         3.9690   28.0570    9.8090 C.3    22  SER22       0.2116
     62  OG         2.6570   28.0830    9.2930 O.3    22  SER22      -0.2180
     63  N          7.1440   34.2380   17.5550 N.3    27  TYR27      -0.1227
     64  CA         8.2210   33.3050   17.2800 C.3    27  TYR27       0.1736
     65  C          7.9570   32.0310   16.5150 C.2    27  TYR27       0.2596
     66  O          8.8680   31.4830   15.9000 O.2    27  TYR27      -0.2718
     67  CB         8.9420   32.9630   18.5790 C.3    27  TYR27       0.0548
     68  CG         9.7820   34.1050   19.0910 C.ar   27  TYR27      -0.0200
     69  CD1        9.2220   35.1170   19.8680 C.ar   27  TYR27      -0.0009
     70  CD2       11.1190   34.2240   18.7150 C.ar   27  TYR27      -0.0009
     71  CE1        9.9780   36.2240   20.2520 C.ar   27  TYR27       0.0417
     72  CE2       11.8800   35.3200   19.0880 C.ar   27  TYR27       0.0417
     73  CZ        11.3090   36.3190   19.8550 C.ar   27  TYR27       0.1957
     74  OH        12.0660   37.4190   20.1910 O.3    27  TYR27      -0.2866
     75  N          6.7220   31.5230   16.5510 N.am   28  CYS28      -0.1956
     76  CA         6.4630   30.2970   15.8320 C.3    28  CYS28       0.1843
     77  C          6.5040   30.6000   14.3480 C.2    28  CYS28       0.2626
     78  O          5.5450   31.1030   13.7530 O.2    28  CYS28      -0.2714
     79  CB         5.1170   29.6910   16.2390 C.3    28  CYS28       0.0997
     80  SG         5.0330   29.2930   18.0190 S.3    28  CYS28      -0.0797
     81  N          7.6580   30.2940   13.7630 N.am   29  GLY29      -0.1940
     82  CA         7.8530   30.5290   12.3570 C.3    29  GLY29       0.2014
     83  C          9.2670   30.9620   12.0560 C.2    29  GLY29       0.2638
     84  O         10.2350   30.3770   12.5490 O.2    29  GLY29      -0.2714
     85  N          9.3840   32.0190   11.2650 N.am   30  TRP30      -0.1973
     86  CA        10.6850   32.5130   10.8470 C.3    30  TRP30       0.1640
     87  C         11.0080   33.9700   11.1960 C.2    30  TRP30       0.2290
     88  O         12.1810   34.3270   11.3610 O.2    30  TRP30      -0.2864
     89  CB        10.8090   32.2300    9.3500 C.3    30  TRP30       0.0576
     90  CG        10.6660   30.7540    9.1180 C.ar   30  TRP30       0.0006
     91  CD1       11.5660   29.7960    9.4710 C.ar   30  TRP30       0.0946
     92  CD2        9.5010   30.0510    8.6380 C.ar   30  TRP30       0.0152
     93  NE1       11.0490   28.5450    9.2440 N.ar   30  TRP30      -0.2442
     94  CE2        9.7860   28.6730    8.7310 C.ar   30  TRP30       0.0810
     95  CE3        8.2620   30.4530    8.1270 C.ar   30  TRP30       0.0012
     96  CZ2        8.8680   27.6810    8.3490 C.ar   30  TRP30       0.0191
     97  CZ3        7.3420   29.4650    7.7490 C.ar   30  TRP30       0.0001
     98  CH2        7.6590   28.0980    7.8600 C.ar   30  TRP30       0.0015
     99  N          8.1900   28.0090   21.0810 N.3    44  CYS44      -0.1235
    100  CA         8.9290   28.2430   19.8190 C.3    44  CYS44       0.1677
    101  C         10.0960   29.1760   19.9720 C.2    44  CYS44       0.2270
    102  O         11.0210   29.1410   19.1610 O.2    44  CYS44      -0.2867
    103  CB         8.0100   28.8000   18.7410 C.3    44  CYS44       0.0956
    104  SG         6.4660   27.8590   18.5000 S.3    44  CYS44      -0.0801
    105  N         12.6170   26.9240   21.3190 N.3    47  HIS47      -0.1226
    106  CA        13.0340   26.0290   20.2550 C.3    47  HIS47       0.1752
    107  C         14.1210   26.6120   19.2980 C.2    47  HIS47       0.2596
    108  O         15.1530   25.9440   19.1220 O.2    47  HIS47      -0.2718
    109  CB        11.8290   25.5740   19.4750 C.3    47  HIS47       0.0759
    110  CG        12.1850   24.6900   18.2710 C.ar   47  HIS47       0.0818
    111  ND1       12.4100   25.2100   17.0150 N.ar   47  HIS47      -0.2268
    112  CD2       12.3290   23.3460   18.1520 C.ar   47  HIS47       0.1154
    113  CE1       12.6660   24.2250   16.1670 C.ar   47  HIS47       0.1986
    114  NE2       12.6230   23.0810   16.8310 N.ar   47  HIS47      -0.2212
    115  N         13.9910   27.8160   18.6700 N.am   48  ASP48      -0.1974
    116  CA        15.1450   28.2530   17.8210 C.3    48  ASP48       0.1709
    117  C         16.2580   28.7990   18.6810 C.2    48  ASP48       0.2293
    118  O         17.2950   29.2330   18.1780 O.2    48  ASP48      -0.2864
    119  CB        14.7850   29.2070   16.6330 C.3    48  ASP48       0.1436
    120  CG        14.1190   30.5100   16.9000 C.2    48  ASP48       0.3671
    121  OD1       12.8800   30.5800   16.7010 O.co2  48  ASP48      -0.2456
    122  OD2       14.8080   31.4630   17.2940 O.co2  48  ASP48      -0.2456
    123  N          4.1480   22.0580   22.8490 N.3    96  PHE96      -0.1241
    124  CA         2.9570   22.4830   22.1200 C.3    96  PHE96       0.1605
    125  C          1.7240   21.7620   22.6250 C.2    96  PHE96       0.2264
    126  O          0.6440   22.3530   22.6890 O.2    96  PHE96      -0.2867
    127  CB         3.0630   22.2130   20.6110 C.3    96  PHE96       0.0534
    128  CG         4.0670   23.0670   19.8950 C.ar   96  PHE96      -0.0203
    129  CD1        4.4230   24.3240   20.3750 C.ar   96  PHE96      -0.0042
    130  CD2        4.6370   22.6190   18.7060 C.ar   96  PHE96      -0.0042
    131  CE1        5.3350   25.1210   19.6770 C.ar   96  PHE96      -0.0003
    132  CE2        5.5440   23.4040   18.0020 C.ar   96  PHE96      -0.0003
    133  CZ         5.8950   24.6590   18.4870 C.ar   96  PHE96      -0.0000
@<TRIPOS>BOND
     1    44    42    1
     2    43    41    1
     3    42    41    1
     4    41    38    1
     5    97    98   ar
     6    97    95   ar
     7    98    96   ar
     8    95    92   ar
     9    96    94   ar
    10    40    39    2
    11    38    39    1
    12    38    37    1
    13    92    94   ar
    14    92    90   ar
    15     5     2    1
    16     5     6    1
    17     8     6    1
    18    94    93   ar
    19    90    89    1
    20    90    91   ar
    21     3     2    1
    22     3     4    2
    23    93    91   ar
    24    62    61    1
    25    89    86    1
    26     1     2    1
    27    37    34   am
    28     6     7    1
    29    61    58    1
    30    60    59    2
    31    34    35    2
    32    34    33    1
    33    86    87    1
    34    86    85    1
    35    36    33    1
    36    59    58    1
    37    87    88    2
    38    32    33    1
    39    58    57    1
    40    85    83   am
    41    21    22    1
    42    21    20    1
    43    22    23    2
    44    20    11   am
    45    83    82    1
    46    83    84    2
    47    57    47   am
    48    82    81    1
    49     9    10    1
    50    11    10    1
    51    11    12    2
    52    47    48    2
    53    47    46    1
    54    13    10    1
    55    13    14    1
    56    45    46    1
    57    78    77    2
    58    81    77   am
    59    16    14   ar
    60    16    18   ar
    61    46    49    1
    62    14    15   ar
    63    77    76    1
    64    31    29    1
    65    49    50    1
    66    18    19   ar
    67    28    30    1
    68    28    29    1
    69    28    25    1
    70    26    25    1
    71    26    27    2
    72    24    25    1
    73    15    17   ar
    74    52    50   ar
    75    52    54   ar
    76    76    79    1
    77    76    75    1
    78    66    65    2
    79    50    51   ar
    80   113   114   ar
    81   113   111   ar
    82    19    17   ar
    83    79    80    1
    84    65    75   am
    85    65    64    1
    86   119   120    1
    87   119   116    1
    88   121   120   ar
    89    54    55   ar
    90   114   112   ar
    91   120   122   ar
    92   111   110   ar
    93    51    53   ar
    94    64    63    1
    95    64    67    1
    96   116   115    1
    97   116   117    1
    98   132   133   ar
    99   132   130   ar
   100    55    53   ar
   101    55    56    1
   102    80   104    1
   103   112   110   ar
   104   118   117    2
   105   110   109    1
   106   133   131   ar
   107   104   103    1
   108    67    68    1
   109   115   107   am
   110   130   128   ar
   111    70    72   ar
   112    70    68   ar
   113   103   100    1
   114    72    73   ar
   115    68    69   ar
   116   108   107    2
   117   102   101    2
   118   107   106    1
   119   109   106    1
   120   131   129   ar
   121   100   101    1
   122   100    99    1
   123    73    74    1
   124    73    71   ar
   125    69    71   ar
   126   128   129   ar
   127   128   127    1
   128   106   105    1
   129   127   124    1
   130   124   125    1
   131   124   123    1
   132   125   126    2
