@<TRIPOS>MOLECULE
tmp/1y38B01.pdb
 75 76 0 0 0
SMALL
GASTEIGER

@<TRIPOS>ATOM
      1  N          3.0870   27.9880   12.0970 N.3    22  SER22      -0.1202
      2  CA         4.0220   28.6750   11.2110 C.3    22  SER22       0.2020
      3  C          3.8050   30.1890   11.1300 C.2    22  SER22       0.2619
      4  O          4.6380   30.8990   10.5870 O.2    22  SER22      -0.2717
      5  CB         3.9690   28.0570    9.8090 C.3    22  SER22       0.2103
      6  OG         2.6570   28.0830    9.2930 O.3    22  SER22      -0.2182
      7  N          2.6860   30.6720   11.6610 N.am   23  SER23      -0.1951
      8  CA         2.3950   32.1010   11.6770 C.3    23  SER23       0.1924
      9  C          1.6480   32.4330   12.9610 C.2    23  SER23       0.2314
     10  O          0.6240   33.1120   12.9470 O.2    23  SER23      -0.2863
     11  CB         1.5650   32.5150   10.4480 C.3    23  SER23       0.2116
     12  OG         0.3830   31.7440   10.3040 O.3    23  SER23      -0.2180
     13  N          6.7220   31.5230   16.5510 N.3    28  CYS28      -0.1221
     14  CA         6.4630   30.2970   15.8320 C.3    28  CYS28       0.1808
     15  C          6.5040   30.6000   14.3480 C.2    28  CYS28       0.2602
     16  O          5.5450   31.1030   13.7530 O.2    28  CYS28      -0.2717
     17  CB         5.1170   29.6910   16.2390 C.3    28  CYS28       0.0970
     18  SG         5.0330   29.2930   18.0190 S.3    28  CYS28      -0.0800
     19  N          7.6580   30.2940   13.7630 N.am   29  GLY29      -0.1942
     20  CA         7.8530   30.5290   12.3570 C.3    29  GLY29       0.2014
     21  C          9.2670   30.9620   12.0560 C.2    29  GLY29       0.2639
     22  O         10.2350   30.3770   12.5490 O.2    29  GLY29      -0.2714
     23  N          9.3840   32.0190   11.2650 N.am   30  TRP30      -0.1959
     24  CA        10.6850   32.5130   10.8470 C.3    30  TRP30       0.1771
     25  C         11.0080   33.9700   11.1960 C.2    30  TRP30       0.2620
     26  O         12.1810   34.3270   11.3610 O.2    30  TRP30      -0.2715
     27  CB        10.8090   32.2300    9.3500 C.3    30  TRP30       0.0590
     28  CG        10.6660   30.7540    9.1180 C.ar   30  TRP30       0.0006
     29  CD1       11.5660   29.7960    9.4710 C.ar   30  TRP30       0.0946
     30  CD2        9.5010   30.0510    8.6380 C.ar   30  TRP30       0.0152
     31  NE1       11.0490   28.5450    9.2440 N.ar   30  TRP30      -0.2442
     32  CE2        9.7860   28.6730    8.7310 C.ar   30  TRP30       0.0810
     33  CE3        8.2620   30.4530    8.1270 C.ar   30  TRP30       0.0012
     34  CZ2        8.8680   27.6810    8.3490 C.ar   30  TRP30       0.0191
     35  CZ3        7.3420   29.4650    7.7490 C.ar   30  TRP30       0.0001
     36  CH2        7.6590   28.0980    7.8600 C.ar   30  TRP30       0.0015
     37  N          9.9810   34.7990   11.3280 N.am   31  GLY31      -0.1954
     38  CA        10.2070   36.1980   11.6730 C.3    31  GLY31       0.1869
     39  C         11.1670   36.3540   12.8440 C.2    31  GLY31       0.2309
     40  O         12.2300   36.9580   12.7110 O.2    31  GLY31      -0.2863
     41  N         -1.1610   35.0470   12.4460 N.3   109  LEU109     -0.1231
     42  CA        -0.8850   36.1450   11.5360 C.3   109  LEU109      0.1693
     43  C         -0.7630   37.4210   12.3490 C.2   109  LEU109      0.2592
     44  O         -1.2490   38.4820   11.9530 O.2   109  LEU109     -0.2718
     45  CB        -2.0100   36.2790   10.5090 C.3   109  LEU109      0.0284
     46  CG        -2.1700   35.0650    9.5950 C.3   109  LEU109      0.0019
     47  CD1       -3.4630   35.1870    8.8130 C.3   109  LEU109      0.0001
     48  CD2       -0.9720   34.9590    8.6690 C.3   109  LEU109      0.0001
     49  N         -0.1100   37.2970   13.4970 N.am  110  TYR110     -0.1963
     50  CA         0.1020   38.4160   14.4000 C.3   110  TYR110      0.1756
     51  C          0.9690   39.4720   13.7150 C.2   110  TYR110      0.2461
     52  O          1.9760   39.1470   13.0860 O.2   110  TYR110     -0.2730
     53  CB         0.7900   37.9150   15.6670 C.3   110  TYR110      0.0574
     54  CG         0.4760   38.7100   16.9060 C.ar  110  TYR110     -0.0198
     55  CD1       -0.8330   38.8160   17.3810 C.ar  110  TYR110     -0.0009
     56  CD2        1.4910   39.3260   17.6280 C.ar  110  TYR110     -0.0009
     57  CE1       -1.1160   39.5160   18.5480 C.ar  110  TYR110      0.0417
     58  CE2        1.2200   40.0290   18.7950 C.ar  110  TYR110      0.0417
     59  CZ        -0.0790   40.1180   19.2490 C.ar  110  TYR110      0.1957
     60  OH        -0.3230   40.8020   20.4120 O.3   110  TYR110     -0.2866
     61  N          0.5800   40.7560   13.8220 N.am  111  PRO111     -0.2716
     62  CA         1.3370   41.8490   13.2020 C.3   111  PRO111      0.1536
     63  C          2.7160   42.0890   13.8080 C.2   111  PRO111      0.2598
     64  O          2.9160   41.9800   15.0150 O.2   111  PRO111     -0.2715
     65  CB         0.4130   43.0510   13.3710 C.3   111  PRO111      0.0310
     66  CG        -0.9530   42.4250   13.3750 C.3   111  PRO111      0.0237
     67  CD        -0.7350   41.2390   14.2780 C.3   111  PRO111      0.0939
     68  N          3.6520   42.4290   12.9330 N.am  112  ASP112     -0.1972
     69  CA         5.0460   42.6960   13.2780 C.3   112  ASP112      0.1709
     70  C          5.1900   43.7930   14.3320 C.2   112  ASP112      0.2293
     71  O          5.9790   43.6610   15.2640 O.2   112  ASP112     -0.2864
     72  CB         5.8040   43.0900   11.9990 C.3   112  ASP112      0.1436
     73  CG         7.2880   42.7730   12.0600 C.2   112  ASP112      0.3671
     74  OD1        8.0290   43.4900   12.7630 O.co2 112  ASP112     -0.2456
     75  OD2        7.7130   41.8010   11.3980 O.co2 112  ASP112     -0.2456
@<TRIPOS>BOND
     1    35    36   ar
     2    35    33   ar
     3    36    34   ar
     4    33    30   ar
     5    34    32   ar
     6    30    32   ar
     7    30    28   ar
     8    48    46    1
     9    32    31   ar
    10    47    46    1
    11    28    27    1
    12    28    29   ar
    13    31    29   ar
    14     6     5    1
    15    27    24    1
    16    46    45    1
    17     5     2    1
    18    12    11    1
    19    11     8    1
    20    45    42    1
    21     4     3    2
    22    24    25    1
    23    24    23    1
    24     3     2    1
    25     3     7   am
    26    25    37   am
    27    25    26    2
    28     2     1    1
    29    23    21   am
    30    37    38    1
    31    75    73   ar
    32    42    43    1
    33    42    41    1
    34     7     8    1
    35    38    39    1
    36     8     9    1
    37    44    43    2
    38    72    73    1
    39    72    69    1
    40    21    20    1
    41    21    22    2
    42    73    74   ar
    43    43    49   am
    44    20    19    1
    45    40    39    2
    46    68    69    1
    47    68    63   am
    48    10     9    2
    49    52    51    2
    50    62    65    1
    51    62    63    1
    52    62    61    1
    53    69    70    1
    54    65    66    1
    55    66    67    1
    56    49    50    1
    57    51    61   am
    58    51    50    1
    59    16    15    2
    60    19    15   am
    61    63    64    2
    62    61    67    1
    63    70    71    2
    64    15    14    1
    65    50    53    1
    66    53    54    1
    67    14    17    1
    68    14    13    1
    69    17    18    1
    70    54    55   ar
    71    54    56   ar
    72    55    57   ar
    73    56    58   ar
    74    57    59   ar
    75    58    59   ar
    76    59    60    1
