@<TRIPOS>MOLECULE
tmp/1y3dB00.pdb
 133 124 0 0 0
SMALL
GASTEIGER

@<TRIPOS>ATOM
      1  N         35.4630   33.6590    9.9390 N.3    28  GLN28      -0.1231
      2  CA        34.8240   34.9590    9.8990 C.3    28  GLN28       0.1698
      3  C         35.0700   35.4850    8.5090 C.2    28  GLN28       0.2592
      4  O         36.2110   35.9110    8.1580 O.2    28  GLN28      -0.2718
      5  CB        35.4650   35.8760   10.9510 C.3    28  GLN28       0.0381
      6  CG        35.2880   35.3520   12.3830 C.3    28  GLN28       0.0905
      7  CD        33.8190   35.1490   12.7350 C.2    28  GLN28       0.2608
      8  OE1       33.0500   36.1180   12.8290 O.2    28  GLN28      -0.2717
      9  NE2       33.4220   33.8900   12.9160 N.am   28  GLN28      -0.0878
     10  N         34.0300   35.4350    7.6820 N.am   29  ILE29      -0.1966
     11  CA        34.2130   35.7330    6.2750 C.3    29  ILE29       0.1727
     12  C         33.8550   37.1660    5.9880 C.2    29  ILE29       0.2616
     13  O         32.8140   37.6240    6.4600 O.2    29  ILE29      -0.2715
     14  CB        33.3520   34.7840    5.3870 C.3    29  ILE29       0.0290
     15  CG1       33.9540   33.3720    5.4790 C.3    29  ILE29       0.0022
     16  CG2       33.3250   35.2890    3.9020 C.3    29  ILE29       0.0023
     17  CD1       33.1930   32.2830    4.6660 C.3    29  ILE29       0.0001
     18  N         34.6960   37.8650    5.2120 N.am   30  ILE30      -0.1977
     19  CA        34.3460   39.2270    4.7610 C.3    30  ILE30       0.1596
     20  C         34.5360   39.3290    3.2540 C.2    30  ILE30       0.2287
     21  O         35.5080   38.7970    2.7360 O.2    30  ILE30      -0.2864
     22  CB        35.1940   40.3360    5.5130 C.3    30  ILE30       0.0276
     23  CG1       34.7100   41.7200    5.0670 C.3    30  ILE30       0.0022
     24  CG2       36.7030   40.1240    5.3000 C.3    30  ILE30       0.0022
     25  CD1       35.1930   42.9000    5.9700 C.3    30  ILE30       0.0001
     26  N         35.1740   41.6950    0.0120 N.3    32  LEU32      -0.1245
     27  CA        35.6540   43.0270   -0.3650 C.3    32  LEU32       0.1561
     28  C         35.9090   43.0900   -1.8700 C.2    32  LEU32       0.2260
     29  O         36.1440   42.0640   -2.5290 O.2    32  LEU32      -0.2867
     30  CB        36.9660   43.3030    0.3900 C.3    32  LEU32       0.0270
     31  CG        36.9020   43.3020    1.9440 C.3    32  LEU32       0.0019
     32  CD1       38.3440   43.3710    2.5370 C.3    32  LEU32       0.0001
     33  CD2       36.0120   44.4350    2.5010 C.3    32  LEU32       0.0001
     34  N         43.9780   47.2350    1.6740 N.3    38  VAL38      -0.1231
     35  CA        43.3890   46.7610    2.9170 C.3    38  VAL38       0.1692
     36  C         44.3930   46.7540    4.0630 C.2    38  VAL38       0.2593
     37  O         45.6120   46.7780    3.8240 O.2    38  VAL38      -0.2718
     38  CB        42.8070   45.3070    2.7670 C.3    38  VAL38       0.0266
     39  CG1       41.6820   45.2670    1.6380 C.3    38  VAL38       0.0020
     40  CG2       43.9280   44.2430    2.4540 C.3    38  VAL38       0.0020
     41  N         43.8740   46.6460    5.2970 N.am   39  THR39      -0.1939
     42  CA        44.7300   46.5440    6.4940 C.3    39  THR39       0.2028
     43  C         45.6340   45.3360    6.4100 C.2    39  THR39       0.2642
     44  O         45.2370   44.2940    5.8510 O.2    39  THR39      -0.2714
     45  CB        43.8570   46.4040    7.7630 C.3    39  THR39       0.1808
     46  OG1       42.9470   45.2870    7.6240 O.3    39  THR39      -0.2208
     47  CG2       42.9530   47.6620    7.9670 C.3    39  THR39       0.0379
     48  N         46.8310   45.4360    7.0110 N.am   40  MET40      -0.1962
     49  CA        47.7920   44.3440    6.9550 C.3    40  MET40       0.1736
     50  C         47.9470   43.6260    8.3160 C.2    40  MET40       0.2616
     51  O         49.0490   43.1440    8.6730 O.2    40  MET40      -0.2715
     52  CB        49.1480   44.8610    6.3930 C.3    40  MET40       0.0427
     53  CG        49.0600   45.1670    4.8970 C.3    40  MET40       0.0599
     54  SD        49.0100   43.5900    3.9610 S.3    40  MET40      -0.1393
     55  CE        47.5280   43.8950    2.9520 C.3    40  MET40       0.0692
     56  N         46.8520   43.5190    9.0830 N.am   41  GLU41      -0.1977
     57  CA        46.9080   42.6210   10.2340 C.3    41  GLU41       0.1602
     58  C         46.6280   41.1500    9.8300 C.2    41  GLU41       0.2287
     59  O         46.0520   40.8620    8.7600 O.2    41  GLU41      -0.2864
     60  CB        46.0150   43.1120   11.3820 C.3    41  GLU41       0.0415
     61  CG        44.5430   42.6490   11.4210 C.3    41  GLU41       0.1163
     62  CD        43.6530   43.2210   10.3160 C.2    41  GLU41       0.3649
     63  OE1       44.1260   43.5020    9.1790 O.co2  41  GLU41      -0.2457
     64  OE2       42.4260   43.3810   10.5520 O.co2  41  GLU41      -0.2457
     65  N         44.8100   37.6690   11.0020 N.3    43  ARG43      -0.1245
     66  CA        43.7770   37.1110   11.8610 C.3    43  ARG43       0.1563
     67  C         43.5610   35.6720   11.3890 C.2    43  ARG43       0.2260
     68  O         43.0410   35.4550   10.2790 O.2    43  ARG43      -0.2867
     69  CB        42.4740   37.8940   11.6580 C.3    43  ARG43       0.0307
     70  CG        42.3960   39.2060   12.3930 C.3    43  ARG43       0.0489
     71  CD        41.6390   39.1240   13.6980 C.3    43  ARG43       0.2205
     72  NE        40.3620   38.4190   13.5950 N.pl3  43  ARG43      -0.0865
     73  CZ        39.2170   38.9930   13.2770 C.cat  43  ARG43       0.5346
     74  NH1       39.1670   40.2970   13.0070 N.pl3  43  ARG43       0.1354
     75  NH2       38.1160   38.2680   13.2290 N.pl3  43  ARG43       0.1354
     76  N         40.0070   34.6780   10.1480 N.3    46  ARG46      -0.1245
     77  CA        39.3810   35.4220    9.0470 C.3    46  ARG46       0.1563
     78  C         39.6990   34.7920    7.7070 C.2    46  ARG46       0.2260
     79  O         40.8230   34.3050    7.4930 O.2    46  ARG46      -0.2867
     80  CB        39.9480   36.8680    8.9960 C.3    46  ARG46       0.0307
     81  CG        39.3150   37.7240    7.8800 C.3    46  ARG46       0.0489
     82  CD        39.7340   39.2170    8.0230 C.3    46  ARG46       0.2205
     83  NE        41.2160   39.3320    8.0630 N.pl3  46  ARG46      -0.0865
     84  CZ        41.8330   40.4800    8.4050 C.cat  46  ARG46       0.5346
     85  NH1       41.0870   41.5430    8.7050 N.pl3  46  ARG46       0.1354
     86  NH2       43.1710   40.5440    8.4570 N.pl3  46  ARG46       0.1354
     87  N         39.1850   36.5550    3.9990 N.3    48  ALA48      -0.1245
     88  CA        38.6620   37.6060    3.1320 C.3    48  ALA48       0.1562
     89  C         38.4200   37.0410    1.7220 C.2    48  ALA48       0.2260
     90  O         39.2650   36.3210    1.1680 O.2    48  ALA48      -0.2867
     91  CB        39.6320   38.7750    3.0710 C.3    48  ALA48       0.0290
     92  N         37.9430   38.3210   -2.0640 N.3    50  PHE50      -0.1241
     93  CA        38.0490   39.4470   -2.9830 C.3    50  PHE50       0.1605
     94  C         37.3320   39.1720   -4.2840 C.2    50  PHE50       0.2264
     95  O         37.7080   38.2410   -5.0020 O.2    50  PHE50      -0.2867
     96  CB        39.5280   39.7550   -3.2320 C.3    50  PHE50       0.0534
     97  CG        40.1690   40.3950   -2.0040 C.ar   50  PHE50      -0.0203
     98  CD1       39.9290   41.7380   -1.7070 C.ar   50  PHE50      -0.0042
     99  CD2       40.9060   39.6230   -1.1040 C.ar   50  PHE50      -0.0042
    100  CE1       40.4770   42.3460   -0.5160 C.ar   50  PHE50      -0.0003
    101  CE2       41.4750   40.2140    0.0760 C.ar   50  PHE50      -0.0003
    102  CZ        41.2470   41.5650    0.3570 C.ar   50  PHE50      -0.0000
    103  N         40.8090   36.5170   -6.5630 N.3    59  GLN59      -0.1231
    104  CA        42.1340   36.3230   -5.9120 C.3    59  GLN59       0.1698
    105  C         42.0250   35.0350   -5.0640 C.2    59  GLN59       0.2592
    106  O         40.9340   34.7390   -4.5460 O.2    59  GLN59      -0.2718
    107  CB        42.3620   37.5530   -5.0140 C.3    59  GLN59       0.0381
    108  CG        43.6240   37.6070   -4.1750 C.3    59  GLN59       0.0905
    109  CD        43.8060   39.0080   -3.5940 C.2    59  GLN59       0.2608
    110  OE1       43.6970   39.9960   -4.3300 O.2    59  GLN59      -0.2717
    111  NE2       44.0400   39.1000   -2.2830 N.am   59  GLN59      -0.0878
    112  N         43.1210   34.3020   -4.8780 N.am   60  VAL60      -0.1980
    113  CA        43.0530   33.0530   -4.0820 C.3    60  VAL60       0.1595
    114  C         42.6460   33.3510   -2.6390 C.2    60  VAL60       0.2287
    115  O         43.3940   34.0920   -1.9160 O.2    60  VAL60      -0.2864
    116  CB        44.4290   32.3300   -4.0730 C.3    60  VAL60       0.0276
    117  CG1       44.4370   31.1300   -3.1520 C.3    60  VAL60       0.0022
    118  CG2       44.8340   31.8830   -5.4890 C.3    60  VAL60       0.0022
    119  N         42.5460   32.9350    1.2510 N.3    62  ARG62      -0.1245
    120  CA        43.3940   32.3180    2.2730 C.3    62  ARG62       0.1563
    121  C         43.0100   32.7870    3.6710 C.2    62  ARG62       0.2260
    122  O         42.3640   33.8360    3.8530 O.2    62  ARG62      -0.2867
    123  CB        44.8820   32.6140    1.9950 C.3    62  ARG62       0.0307
    124  CG        45.2550   34.1050    2.1240 C.3    62  ARG62       0.0489
    125  CD        46.7840   34.3170    2.4510 C.3    62  ARG62       0.2205
    126  NE        47.1200   35.7310    2.3400 N.pl3  62  ARG62      -0.0865
    127  CZ        46.9900   36.6470    3.3150 C.cat  62  ARG62       0.5346
    128  NH1       46.5610   36.3230    4.5540 N.pl3  62  ARG62       0.1354
    129  NH2       47.3260   37.9080    3.0550 N.pl3  62  ARG62       0.1354
    130  N         43.7330   34.6270    7.1390 N.3    64  GLY64      -0.1225
    131  CA        44.6180   35.7390    7.4920 C.3    64  GLY64       0.1811
    132  C         43.8580   37.0410    7.5620 C.2    64  GLY64       0.2280
    133  O         44.4020   37.9920    8.1730 O.2    64  GLY64      -0.2866
@<TRIPOS>BOND
     1   103   104    1
     2   104   105    1
     3   104   107    1
     4   118   116    1
     5   105   112   am
     6   105   106    2
     7   107   108    1
     8    95    94    2
     9   112   113    1
    10   110   109    2
    11    94    93    1
    12   108   109    1
    13   113   116    1
    14   113   114    1
    15   116   117    1
    16   109   111   am
    17    96    93    1
    18    96    97    1
    19    93    92    1
    20   114   115    2
    21    29    28    2
    22    97    98   ar
    23    97    99   ar
    24    28    27    1
    25    98   100   ar
    26    99   101   ar
    27   100   102   ar
    28    27    26    1
    29    27    30    1
    30   101   102   ar
    31    30    31    1
    32    90    89    2
    33   119   120    1
    34    39    38    1
    35    34    35    1
    36    89    88    1
    37    31    33    1
    38    31    32    1
    39   123   124    1
    40   123   120    1
    41   124   125    1
    42   120   121    1
    43   126   125    1
    44   126   127    2
    45    40    38    1
    46    21    20    2
    47    38    35    1
    48    35    36    1
    49    55    54    1
    50   129   127    1
    51    91    88    1
    52    88    87    1
    53    20    19    1
    54   127   128    1
    55   121   122    2
    56    37    36    2
    57    16    14    1
    58    54    53    1
    59    36    41   am
    60    17    15    1
    61    19    18    1
    62    19    22    1
    63    53    52    1
    64    23    22    1
    65    23    25    1
    66    18    12   am
    67    41    42    1
    68    24    22    1
    69    14    15    1
    70    14    11    1
    71    44    43    2
    72    12    11    1
    73    12    13    2
    74    11    10    1
    75    52    49    1
    76    43    42    1
    77    43    48   am
    78    42    45    1
    79    49    48    1
    80    49    50    1
    81   130   131    1
    82   131   132    1
    83    79    78    2
    84   132   133    2
    85    46    45    1
    86    10     3   am
    87    78    77    1
    88    45    47    1
    89    81    82    1
    90    81    80    1
    91    82    83    1
    92    83    84    2
    93     4     3    2
    94    50    51    2
    95    50    56   am
    96    84    86    1
    97    84    85    1
    98     3     2    1
    99    59    58    2
   100    80    77    1
   101    77    76    1
   102    56    57    1
   103    63    62   ar
   104    58    57    1
   105     2     1    1
   106     2     5    1
   107    57    60    1
   108    68    67    2
   109    62    64   ar
   110    62    61    1
   111     5     6    1
   112    65    66    1
   113    60    61    1
   114    67    66    1
   115    69    66    1
   116    69    70    1
   117     6     7    1
   118    70    71    1
   119     7     8    2
   120     7     9   am
   121    74    73    1
   122    75    73    1
   123    73    72    2
   124    72    71    1
