@<TRIPOS>MOLECULE
tmp/1y3gA00.pdb
 211 208 0 0 0
SMALL
GASTEIGER

@<TRIPOS>ATOM
      1  N         29.5610   32.6120    2.6660 N.3   110  TYR110     -0.1227
      2  CA        30.1140   33.1910    1.4670 C.3   110  TYR110      0.1736
      3  C         31.2310   34.2020    1.7580 C.2   110  TYR110      0.2595
      4  O         31.0020   35.2680    2.3580 O.2   110  TYR110     -0.2718
      5  CB        29.0100   33.7970    0.6340 C.3   110  TYR110      0.0548
      6  CG        29.4620   34.1800   -0.7170 C.ar  110  TYR110     -0.0200
      7  CD1       29.8040   33.2090   -1.6610 C.ar  110  TYR110     -0.0009
      8  CD2       29.5340   35.5250   -1.0720 C.ar  110  TYR110     -0.0009
      9  CE1       30.2220   33.5730   -2.9390 C.ar  110  TYR110      0.0417
     10  CE2       29.9320   35.9050   -2.3500 C.ar  110  TYR110      0.0417
     11  CZ        30.2860   34.9270   -3.2770 C.ar  110  TYR110      0.1957
     12  OH        30.7030   35.3000   -4.5230 O.3   110  TYR110     -0.2866
     13  N         32.4410   33.8480    1.3160 N.am  111  ASN111     -0.1960
     14  CA        33.6470   34.6470    1.5240 C.3   111  ASN111      0.1819
     15  C         33.9290   35.6150    0.3950 C.2   111  ASN111      0.2621
     16  O         35.0300   35.6560   -0.1340 O.2   111  ASN111     -0.2715
     17  CB        34.8940   33.7480    1.7620 C.3   111  ASN111      0.1195
     18  CG        34.8890   33.0640    3.1170 C.2   111  ASN111      0.2630
     19  OD1       34.4460   33.6380    4.1260 O.2   111  ASN111     -0.2716
     20  ND2       35.3660   31.8230    3.1450 N.am  111  ASN111     -0.0877
     21  N         32.9470   36.4040    0.0350 N.am  112  ASN112     -0.1958
     22  CA        33.1480   37.3700   -1.0070 C.3   112  ASN112      0.1819
     23  C         32.0450   38.4010   -1.0470 C.2   112  ASN112      0.2621
     24  O         31.1000   38.3680   -0.2570 O.2   112  ASN112     -0.2715
     25  CB        33.3330   36.7090   -2.3930 C.3   112  ASN112      0.1195
     26  CG        34.4170   37.3810   -3.2490 C.2   112  ASN112      0.2630
     27  OD1       34.7310   38.5650   -3.0870 O.2   112  ASN112     -0.2716
     28  ND2       35.0030   36.6120   -4.1530 N.am  112  ASN112     -0.0877
     29  N         32.2020   39.3260   -1.9780 N.am  113  ALA113     -0.1963
     30  CA        31.2450   40.3800   -2.2580 C.3   113  ALA113      0.1728
     31  C         31.3540   40.7330   -3.7220 C.2   113  ALA113      0.2616
     32  O         32.3340   40.3740   -4.3740 O.2   113  ALA113     -0.2715
     33  CB        31.4770   41.6180   -1.3820 C.3   113  ALA113      0.0334
     34  N         30.3600   41.4310   -4.2510 N.am  114  PHE114     -0.1960
     35  CA        30.4070   41.7700   -5.6380 C.3   114  PHE114      0.1771
     36  C         29.3510   42.7500   -6.0630 C.2   114  PHE114      0.2620
     37  O         28.3310   42.9330   -5.4020 O.2   114  PHE114     -0.2715
     38  CB        30.3410   40.4990   -6.5290 C.3   114  PHE114      0.0574
     39  CG        29.0800   39.6600   -6.3330 C.ar  114  PHE114     -0.0200
     40  CD1       29.0510   38.6080   -5.4140 C.ar  114  PHE114     -0.0042
     41  CD2       27.9450   39.8790   -7.1160 C.ar  114  PHE114     -0.0042
     42  CE1       27.9150   37.8090   -5.2500 C.ar  114  PHE114     -0.0003
     43  CE2       26.7990   39.0950   -6.9680 C.ar  114  PHE114     -0.0003
     44  CZ        26.7890   38.0550   -6.0360 C.ar  114  PHE114     -0.0000
     45  N         29.6330   43.3820   -7.1990 N.am  115  TRP115     -0.1960
     46  CA        28.7070   44.2390   -7.8980 C.3   115  TRP115      0.1771
     47  C         28.1780   43.4040   -9.0590 C.2   115  TRP115      0.2619
     48  O         28.9610   42.8640   -9.8280 O.2   115  TRP115     -0.2715
     49  CB        29.4050   45.5150   -8.4070 C.3   115  TRP115      0.0590
     50  CG        28.5890   46.2660   -9.4110 C.ar  115  TRP115      0.0006
     51  CD1       28.7720   46.2560  -10.7590 C.ar  115  TRP115      0.0946
     52  CD2       27.4850   47.1530   -9.1590 C.ar  115  TRP115      0.0152
     53  NE1       27.8500   47.0650  -11.3740 N.ar  115  TRP115     -0.2442
     54  CE2       27.0500   47.6400  -10.4140 C.ar  115  TRP115      0.0810
     55  CE3       26.8260   47.5800   -8.0050 C.ar  115  TRP115      0.0012
     56  CZ2       25.9820   48.5290  -10.5280 C.ar  115  TRP115      0.0191
     57  CZ3       25.7740   48.4650   -8.1260 C.ar  115  TRP115      0.0001
     58  CH2       25.3450   48.9150   -9.3760 C.ar  115  TRP115      0.0015
     59  N         26.8870   43.1400   -9.0810 N.am  116  ASN116     -0.1972
     60  CA        26.3450   42.2380  -10.0910 C.3   116  ASN116      0.1688
     61  C         25.8890   42.9380  -11.3430 C.2   116  ASN116      0.2292
     62  O         25.1980   42.3510  -12.1780 O.2   116  ASN116     -0.2864
     63  CB        25.2280   41.3430   -9.5290 C.3   116  ASN116      0.1181
     64  CG        23.8750   42.0360   -9.4820 C.2   116  ASN116      0.2629
     65  OD1       23.7830   43.2770   -9.5410 O.2   116  ASN116     -0.2716
     66  ND2       22.8210   41.2360   -9.4080 N.am  116  ASN116     -0.0877
     67  N         36.6660   35.1890    6.9770 N.3   130  PHE130     -0.1241
     68  CA        36.0090   36.4670    6.9670 C.3   130  PHE130      0.1605
     69  C         34.8630   36.4910    7.9240 C.2   130  PHE130      0.2264
     70  O         34.2980   35.4610    8.2640 O.2   130  PHE130     -0.2867
     71  CB        35.3910   36.7570    5.5710 C.3   130  PHE130      0.0534
     72  CG        36.3220   37.3340    4.5470 C.ar  130  PHE130     -0.0203
     73  CD1       36.7090   38.6720    4.6110 C.ar  130  PHE130     -0.0042
     74  CD2       36.7620   36.5620    3.4690 C.ar  130  PHE130     -0.0042
     75  CE1       37.5630   39.2220    3.6550 C.ar  130  PHE130     -0.0003
     76  CE2       37.6180   37.0930    2.5020 C.ar  130  PHE130     -0.0003
     77  CZ        38.0120   38.4280    2.5980 C.ar  130  PHE130     -0.0000
     78  N         31.2570   40.7940    5.2630 N.3   133  LEU133     -0.1245
     79  CA        32.0420   41.7260    4.4640 C.3   133  LEU133      0.1561
     80  C         31.6440   43.2030    4.5320 C.2   133  LEU133      0.2260
     81  O         32.4850   44.0810    4.3440 O.2   133  LEU133     -0.2867
     82  CB        32.2440   41.2260    3.0250 C.3   133  LEU133      0.0270
     83  CG        33.2410   40.0700    2.9600 C.3   133  LEU133      0.0019
     84  CD1       32.5880   38.7690    3.4470 C.3   133  LEU133      0.0001
     85  CD2       33.7830   39.9110    1.5460 C.3   133  LEU133      0.0001
     86  N         35.7450   47.9960    1.9220 N.3   139  VAL139     -0.1245
     87  CA        35.0570   46.9720    1.1520 C.3   139  VAL139      0.1561
     88  C         33.8150   47.5320    0.4720 C.2   139  VAL139      0.2260
     89  O         33.6140   47.3630   -0.7350 O.2   139  VAL139     -0.2867
     90  CB        34.6930   45.7800    2.0160 C.3   139  VAL139      0.0252
     91  CG1       33.9110   44.7580    1.2010 C.3   139  VAL139      0.0019
     92  CG2       35.9580   45.1550    2.5640 C.3   139  VAL139      0.0019
     93  N         34.7840   49.9160   -2.1350 N.3   142  HIS142     -0.1226
     94  CA        35.3590   49.1740   -3.2510 C.3   142  HIS142      0.1752
     95  C         34.2460   48.6760   -4.1730 C.2   142  HIS142      0.2595
     96  O         34.2880   48.8570   -5.3890 O.2   142  HIS142     -0.2718
     97  CB        36.2160   47.9910   -2.7430 C.3   142  HIS142      0.0759
     98  CG        36.7380   47.0800   -3.8250 C.ar  142  HIS142      0.0818
     99  ND1       38.1030   47.0260   -4.1450 N.ar  142  HIS142     -0.2268
    100  CD2       36.0860   46.1660   -4.6070 C.ar  142  HIS142      0.1154
    101  CE1       38.2380   46.1180   -5.1140 C.ar  142  HIS142      0.1986
    102  NE2       37.0530   45.5860   -5.4150 N.ar  142  HIS142     -0.2212
    103  N         33.2290   48.0630   -3.5590 N.am  143  GLU143     -0.1979
    104  CA        32.0920   47.5500   -4.3040 C.3   143  GLU143      0.1602
    105  C         31.3600   48.6630   -5.0590 C.2   143  GLU143      0.2287
    106  O         31.0780   48.5540   -6.2520 O.2   143  GLU143     -0.2864
    107  CB        31.1260   46.7830   -3.3970 C.3   143  GLU143      0.0415
    108  CG        31.7260   45.4630   -2.8470 C.3   143  GLU143      0.1163
    109  CD        32.4870   44.6570   -3.8860 C.2   143  GLU143      0.3649
    110  OE1       32.0960   44.4800   -5.0220 O.co2 143  GLU143     -0.2457
    111  OE2       33.5880   44.1340   -3.4160 O.co2 143  GLU143     -0.2457
    112  N         33.0580   49.9590   -8.1390 N.3   146  HIS146     -0.1241
    113  CA        32.9070   49.1160   -9.3110 C.3   146  HIS146      0.1621
    114  C         31.7630   49.6460  -10.1750 C.2   146  HIS146      0.2264
    115  O         31.8140   49.6320  -11.4050 O.2   146  HIS146     -0.2867
    116  CB        32.6230   47.6500   -8.9160 C.3   146  HIS146      0.0745
    117  CG        33.8610   46.8260   -8.7080 C.ar  146  HIS146      0.0817
    118  ND1       34.9150   46.8350   -9.6250 N.ar  146  HIS146     -0.2268
    119  CD2       34.1900   45.9700   -7.7030 C.ar  146  HIS146      0.1154
    120  CE1       35.8440   46.0140   -9.1550 C.ar  146  HIS146      0.1986
    121  NE2       35.4360   45.4740   -8.0070 N.ar  146  HIS146     -0.2212
    122  N         36.4630   43.7370  -17.3840 N.3   157  TYR157     -0.1241
    123  CA        36.9620   42.9800  -16.2560 C.3   157  TYR157      0.1605
    124  C         37.9150   41.8670  -16.6210 C.2   157  TYR157      0.2264
    125  O         37.7040   40.7020  -16.2640 O.2   157  TYR157     -0.2867
    126  CB        35.8280   42.4730  -15.3520 C.3   157  TYR157      0.0534
    127  CG        36.2190   42.3590  -13.8870 C.ar  157  TYR157     -0.0201
    128  CD1       36.0440   41.1570  -13.1960 C.ar  157  TYR157     -0.0009
    129  CD2       36.7010   43.4610  -13.1770 C.ar  157  TYR157     -0.0009
    130  CE1       36.3490   41.0420  -11.8380 C.ar  157  TYR157      0.0417
    131  CE2       37.0130   43.3670  -11.8190 C.ar  157  TYR157      0.0417
    132  CZ        36.8380   42.1520  -11.1520 C.ar  157  TYR157      0.1957
    133  OH        37.1480   42.0460   -9.8130 O.3   157  TYR157     -0.2866
    134  N         40.1850   47.0940  -10.8760 N.3   166  GLU166     -0.1245
    135  CA        40.4010   46.6800   -9.4820 C.3   166  GLU166      0.1567
    136  C         41.1150   47.7530   -8.6640 C.2   166  GLU166      0.2260
    137  O         40.6930   48.1000   -7.5690 O.2   166  GLU166     -0.2867
    138  CB        41.1760   45.3450   -9.4000 C.3   166  GLU166      0.0388
    139  CG        40.2550   44.1220   -9.3020 C.3   166  GLU166      0.1160
    140  CD        39.2950   44.2320   -8.1700 C.2   166  GLU166      0.3649
    141  OE1       39.6430   44.3550   -7.0110 O.co2 166  GLU166     -0.2457
    142  OE2       38.0620   44.1850   -8.5550 O.co2 166  GLU166     -0.2457
    143  N         43.7410   46.8060    2.5990 N.3   188  ILE188     -0.1231
    144  CA        42.4080   46.4660    2.1230 C.3   188  ILE188      0.1692
    145  C         41.7230   45.3350    2.9270 C.2   188  ILE188      0.2592
    146  O         42.2270   44.2190    3.0060 O.2   188  ILE188     -0.2718
    147  CB        42.4180   46.1220    0.6290 C.3   188  ILE188      0.0266
    148  CG1       43.0440   47.2570   -0.1770 C.3   188  ILE188      0.0019
    149  CG2       40.9850   45.8790    0.1530 C.3   188  ILE188      0.0020
    150  CD1       42.1670   48.4980   -0.2170 C.3   188  ILE188      0.0001
    151  N         40.5390   45.6440    3.4900 N.am  189  GLY189     -0.1957
    152  CA        39.6910   44.6630    4.1890 C.3   189  GLY189      0.1869
    153  C         40.2130   44.1570    5.5410 C.2   189  GLY189      0.2309
    154  O         39.7540   43.1240    6.0440 O.2   189  GLY189     -0.2863
    155  N         38.7310   40.7040    7.7320 N.3   193  TYR193     -0.1241
    156  CA        39.5910   39.6040    7.3440 C.3   193  TYR193      0.1605
    157  C         40.2410   38.9080    8.5570 C.2   193  TYR193      0.2264
    158  O         40.7210   39.5720    9.4660 O.2   193  TYR193     -0.2867
    159  CB        40.6650   40.1500    6.3940 C.3   193  TYR193      0.0534
    160  CG        41.4400   39.0940    5.6920 C.ar  193  TYR193     -0.0201
    161  CD1       40.8020   38.1850    4.8510 C.ar  193  TYR193     -0.0009
    162  CD2       42.8250   39.0200    5.8320 C.ar  193  TYR193     -0.0009
    163  CE1       41.5260   37.2020    4.1750 C.ar  193  TYR193      0.0417
    164  CE2       43.5660   38.0470    5.1630 C.ar  193  TYR193      0.0417
    165  CZ        42.9100   37.1390    4.3310 C.ar  193  TYR193      0.1957
    166  OH        43.6270   36.1750    3.6730 O.3   193  TYR193     -0.2866
    167  N         43.8460   41.7660    3.4860 N.3   202  LEU202     -0.1231
    168  CA        43.6820   41.0590    2.2310 C.3   202  LEU202      0.1693
    169  C         44.7280   41.5010    1.2180 C.2   202  LEU202      0.2591
    170  O         45.3710   40.6930    0.5570 O.2   202  LEU202     -0.2718
    171  CB        42.2490   41.2610    1.6810 C.3   202  LEU202      0.0284
    172  CG        41.8650   40.2960    0.5830 C.3   202  LEU202      0.0019
    173  CD1       41.6490   38.9050    1.1730 C.3   202  LEU202      0.0001
    174  CD2       40.5880   40.7810   -0.1020 C.3   202  LEU202      0.0001
    175  N         44.8680   42.8050    1.0990 N.am  203  ARG203     -0.1980
    176  CA        45.8080   43.3980    0.1850 C.3   203  ARG203      0.1597
    177  C         46.4390   44.5700    0.8230 C.2   203  ARG203      0.2287
    178  O         45.8400   45.1950    1.6950 O.2   203  ARG203     -0.2864
    179  CB        45.1340   43.8670   -1.1080 C.3   203  ARG203      0.0334
    180  CG        44.6880   42.7380   -2.0280 C.3   203  ARG203      0.0492
    181  CD        44.2640   43.2470   -3.4040 C.3   203  ARG203      0.2205
    182  NE        42.9760   43.9510   -3.4030 N.pl3 203  ARG203     -0.0865
    183  CZ        41.7770   43.3330   -3.4060 C.cat 203  ARG203      0.5346
    184  NH1       41.6640   42.0080   -3.3650 N.pl3 203  ARG203      0.1354
    185  NH2       40.6620   44.0630   -3.4700 N.pl3 203  ARG203      0.1354
    186  N         42.0850   34.3210  -12.0660 N.3   226  ASP226     -0.1225
    187  CA        41.5690   35.6010  -11.6290 C.3   226  ASP226      0.1805
    188  C         41.3200   36.5350  -12.7890 C.2   226  ASP226      0.2597
    189  O         41.7160   37.6840  -12.7660 O.2   226  ASP226     -0.2718
    190  CB        42.5380   36.2510  -10.6200 C.3   226  ASP226      0.1424
    191  CG        41.9590   37.4470   -9.9300 C.2   226  ASP226      0.3668
    192  OD1       40.7600   37.6110   -9.7670 O.co2 226  ASP226     -0.2456
    193  OD2       42.8740   38.2840   -9.5140 O.co2 226  ASP226     -0.2456
    194  N         40.6720   36.0190  -13.8170 N.am  227  ASN227     -0.1974
    195  CA        40.3860   36.8080  -14.9940 C.3   227  ASN227      0.1688
    196  C         41.6340   37.4420  -15.5360 C.2   227  ASN227      0.2292
    197  O         41.6180   38.5830  -16.0120 O.2   227  ASN227     -0.2864
    198  CB        39.3470   37.8950  -14.7000 C.3   227  ASN227      0.1181
    199  CG        37.9590   37.3330  -14.5480 C.2   227  ASN227      0.2629
    200  OD1       37.3270   37.4820  -13.4950 O.2   227  ASN227     -0.2716
    201  ND2       37.4950   36.6440  -15.5840 N.am  227  ASN227     -0.0877
    202  N         42.8720   40.8280   -9.6100 N.3   231  HIS231     -0.1241
    203  CA        43.0940   41.0930   -8.1980 C.3   231  HIS231      0.1621
    204  C         44.5810   40.9860   -7.8330 C.2   231  HIS231      0.2264
    205  O         44.9800   41.2360   -6.6920 O.2   231  HIS231     -0.2867
    206  CB        42.2130   40.2210   -7.2780 C.3   231  HIS231      0.0745
    207  CG        40.7510   40.5410   -7.3750 C.ar  231  HIS231      0.0817
    208  ND1       39.8910   39.7910   -8.1720 N.ar  231  HIS231     -0.2268
    209  CD2       40.0130   41.5040   -6.7480 C.ar  231  HIS231      0.1154
    210  CE1       38.6700   40.3080   -8.0250 C.ar  231  HIS231      0.1986
    211  NE2       38.7080   41.3370   -7.1780 N.ar  231  HIS231     -0.2212
@<TRIPOS>BOND
     1   122   123    1
     2   124   125    2
     3   124   123    1
     4   123   126    1
     5   197   196    2
     6   201   199   am
     7   196   195    1
     8   126   127    1
     9   195   198    1
    10   195   194    1
    11   198   199    1
    12   199   200    2
    13   127   128   ar
    14   127   129   ar
    15   194   188   am
    16   128   130   ar
    17   129   131   ar
    18   188   189    2
    19   188   187    1
    20    62    61    2
    21   186   187    1
    22   130   132   ar
    23   131   132   ar
    24   187   190    1
    25   115   114    2
    26    53    51   ar
    27    53    54   ar
    28    61    60    1
    29   132   133    1
    30   134   135    1
    31    51    50   ar
    32   190   191    1
    33    56    54   ar
    34    56    58   ar
    35    54    52   ar
    36   114   113    1
    37    60    63    1
    38    60    59    1
    39   191   192   ar
    40   191   193   ar
    41    48    47    2
    42   118   120   ar
    43   118   117   ar
    44   202   203    1
    45    65    64    2
    46    63    64    1
    47   135   138    1
    48   135   136    1
    49    64    66   am
    50    50    52   ar
    51    50    49    1
    52   138   139    1
    53    58    57   ar
    54   113   116    1
    55   113   112    1
    56   139   140    1
    57    52    55   ar
    58   120   121   ar
    59    59    47   am
    60    47    46    1
    61   116   117    1
    62   117   119   ar
    63   136   137    2
    64   142   140   ar
    65    49    46    1
    66   203   204    1
    67   203   206    1
    68   208   210   ar
    69   208   207   ar
    70   140   141   ar
    71    57    55   ar
    72   210   211   ar
    73   121   119   ar
    74    46    45    1
    75   204   205    2
    76   207   206    1
    77   207   209   ar
    78    45    36   am
    79   211   209   ar
    80    41    43   ar
    81    41    39   ar
    82    43    44   ar
    83    38    39    1
    84    38    35    1
    85    39    40   ar
    86   106   105    2
    87    36    35    1
    88    36    37    2
    89    44    42   ar
    90    35    34    1
    91   102   101   ar
    92   102   100   ar
    93    40    42   ar
    94    96    95    2
    95   101    99   ar
    96   105   104    1
    97   110   109   ar
    98   100    98   ar
    99    12    11    1
   100    32    31    2
   101   104   103    1
   102   104   107    1
   103    34    31   am
   104    95   103   am
   105    95    94    1
   106    28    26   am
   107    99    98   ar
   108   109   111   ar
   109   109   108    1
   110    98    97    1
   111    31    30    1
   112   185   183    1
   113   183   182    2
   114   183   184    1
   115   181   182    1
   116   181   180    1
   117   107   108    1
   118    11     9   ar
   119    11    10   ar
   120    94    97    1
   121    94    93    1
   122    26    27    2
   123    26    25    1
   124     9     7   ar
   125    25    22    1
   126    10     8   ar
   127    30    29    1
   128    30    33    1
   129   180   179    1
   130    29    23   am
   131     7     6   ar
   132   179   176    1
   133     8     6   ar
   134    23    22    1
   135    23    24    2
   136    22    21    1
   137    89    88    2
   138     6     5    1
   139   150   148    1
   140   148   147    1
   141    16    15    2
   142   174   172    1
   143    21    15   am
   144   149   147    1
   145   176   177    1
   146   176   175    1
   147    15    14    1
   148    88    87    1
   149   170   169    2
   150   172   173    1
   151   172   171    1
   152   147   144    1
   153     5     2    1
   154   177   178    2
   155   175   169   am
   156    87    86    1
   157    87    90    1
   158    91    90    1
   159   169   168    1
   160    13    14    1
   161    13     3   am
   162     2     3    1
   163     2     1    1
   164    14    17    1
   165    85    83    1
   166   171   168    1
   167     3     4    2
   168    17    18    1
   169    90    92    1
   170   144   143    1
   171   144   145    1
   172   168   167    1
   173    76    77   ar
   174    76    74   ar
   175    77    75   ar
   176   145   146    2
   177   145   151   am
   178    83    82    1
   179    83    84    1
   180    82    79    1
   181    18    20   am
   182    18    19    2
   183    74    72   ar
   184   151   152    1
   185    75    73   ar
   186   166   165    1
   187   163   165   ar
   188   163   161   ar
   189   152   153    1
   190   165   164   ar
   191    81    80    2
   192    79    80    1
   193    79    78    1
   194    72    73   ar
   195    72    71    1
   196   161   160   ar
   197   164   162   ar
   198   153   154    2
   199    71    68    1
   200   160   162   ar
   201   160   159    1
   202   159   156    1
   203    68    67    1
   204    68    69    1
   205   156   155    1
   206   156   157    1
   207    69    70    2
   208   157   158    2
