@<TRIPOS>MOLECULE
tmp/1y3iB00.pdb
 143 137 0 0 0
SMALL
GASTEIGER

@<TRIPOS>ATOM
      1  N         71.4010   14.4890   16.8060 N.3    14  ASP14      -0.1225
      2  CA        69.9900   14.5520   16.4950 C.3    14  ASP14       0.1805
      3  C         69.1390   14.4420   17.7500 C.2    14  ASP14       0.2598
      4  O         68.1460   15.1580   17.8970 O.2    14  ASP14      -0.2718
      5  CB        69.6270   13.4510   15.4890 C.3    14  ASP14       0.1424
      6  CG        69.6270   13.9720   14.0650 C.2    14  ASP14       0.3668
      7  OD1       69.0360   13.3210   13.1800 O.co2  14  ASP14      -0.2456
      8  OD2       70.2120   15.0430   13.8170 O.co2  14  ASP14      -0.2456
      9  N         69.5200   13.5640   18.6800 N.am   15  GLY15      -0.1957
     10  CA        68.7170   13.4330   19.8950 C.3    15  GLY15       0.1869
     11  C         68.7190   14.7260   20.6990 C.2    15  GLY15       0.2309
     12  O         67.7160   15.1490   21.2740 O.2    15  GLY15      -0.2863
     13  N         66.8010   17.9480   18.8380 N.3    18  LEU18      -0.1245
     14  CA        65.3620   18.1270   19.0310 C.3    18  LEU18       0.1561
     15  C         65.0700   18.4900   20.4840 C.2    18  LEU18       0.2260
     16  O         63.9770   18.9560   20.8010 O.2    18  LEU18      -0.2867
     17  CB        64.5980   16.8750   18.6060 C.3    18  LEU18       0.0270
     18  CG        64.9630   16.2960   17.2350 C.3    18  LEU18       0.0019
     19  CD1       64.5780   14.8250   17.1630 C.3    18  LEU18       0.0001
     20  CD2       64.3130   17.1060   16.1220 C.3    18  LEU18       0.0001
     21  N         79.0700   10.8470   16.8300 N.3    38  ARG38      -0.1231
     22  CA        77.9620    9.9610   16.5160 C.3    38  ARG38       0.1694
     23  C         77.0850   10.5260   15.3930 C.2    38  ARG38       0.2592
     24  O         76.5260   11.6030   15.5710 O.2    38  ARG38      -0.2718
     25  CB        77.0710    9.6880   17.7310 C.3    38  ARG38       0.0321
     26  CG        76.3980    8.3280   17.6950 C.3    38  ARG38       0.0489
     27  CD        75.1260    8.3180   16.8680 C.3    38  ARG38       0.2205
     28  NE        74.0110    8.9870   17.5290 N.pl3  38  ARG38      -0.0865
     29  CZ        72.7370    8.6640   17.3350 C.cat  38  ARG38       0.5346
     30  NH1       72.4320    7.6800   16.4950 N.pl3  38  ARG38       0.1354
     31  NH2       71.7760    9.3180   17.9710 N.pl3  38  ARG38       0.1354
     32  N         77.0260    9.7730   14.3130 N.am   39  ILE39      -0.1966
     33  CA        76.3290   10.0760   13.0740 C.3    39  ILE39       0.1727
     34  C         74.8280   10.2540   13.2920 C.2    39  ILE39       0.2617
     35  O         74.1670    9.4170   13.9070 O.2    39  ILE39      -0.2715
     36  CB        76.5940    8.9740   12.0260 C.3    39  ILE39       0.0290
     37  CG1       78.0800    8.7110   11.7540 C.3    39  ILE39       0.0022
     38  CG2       75.8720    9.2650   10.7240 C.3    39  ILE39       0.0023
     39  CD1       78.4940    8.9240   10.3140 C.3    39  ILE39       0.0001
     40  N         74.3080   11.3600   12.7800 N.am   40  GLY40      -0.1940
     41  CA        72.9400   11.8020   12.9140 C.3    40  GLY40       0.2014
     42  C         72.5630   12.8020   11.8430 C.2    40  GLY40       0.2639
     43  O         73.3800   13.5390   11.2950 O.2    40  GLY40      -0.2714
     44  N         71.2790   12.8550   11.5080 N.am   41  PHE41      -0.1959
     45  CA        70.8380   13.6360   10.3590 C.3    41  PHE41       0.1771
     46  C         70.8820   15.1440   10.5670 C.2    41  PHE41       0.2619
     47  O         71.7120   15.8000    9.9350 O.2    41  PHE41      -0.2715
     48  CB        69.4140   13.2060    9.9880 C.3    41  PHE41       0.0574
     49  CG        69.0610   13.3950    8.5230 C.ar   41  PHE41      -0.0200
     50  CD1       69.6040   12.5800    7.5470 C.ar   41  PHE41      -0.0042
     51  CD2       68.1810   14.3970    8.1510 C.ar   41  PHE41      -0.0042
     52  CE1       69.2660   12.7710    6.2230 C.ar   41  PHE41      -0.0003
     53  CE2       67.8320   14.5850    6.8290 C.ar   41  PHE41      -0.0003
     54  CZ        68.3760   13.7620    5.8600 C.ar   41  PHE41      -0.0000
     55  N         70.0090   15.6640   11.4060 N.am   42  LEU42      -0.1977
     56  CA        69.6980   17.0640   11.6050 C.3    42  LEU42       0.1596
     57  C         70.8950   17.9840   11.8350 C.2    42  LEU42       0.2287
     58  O         70.7390   19.2000   11.6950 O.2    42  LEU42      -0.2864
     59  CB        68.7640   17.2200   12.8230 C.3    42  LEU42       0.0297
     60  CG        67.5610   16.2810   12.8500 C.3    42  LEU42       0.0022
     61  CD1       66.8640   16.3050   14.1990 C.3    42  LEU42       0.0001
     62  CD2       66.6050   16.6760   11.7340 C.3    42  LEU42       0.0001
     63  N         60.2540   17.2990   15.0030 N.3    88  ASN88      -0.1225
     64  CA        60.0510   16.0640   14.2650 C.3    88  ASN88       0.1785
     65  C         58.5680   15.7900   14.0460 C.2    88  ASN88       0.2597
     66  O         58.0540   15.9300   12.9340 O.2    88  ASN88      -0.2718
     67  CB        60.6720   14.8590   14.9870 C.3    88  ASN88       0.1169
     68  CG        62.1100   14.6740   14.5410 C.2    88  ASN88       0.2627
     69  OD1       62.5890   15.4640   13.7270 O.2    88  ASN88      -0.2716
     70  ND2       62.7900   13.6640   15.0570 N.am   88  ASN88      -0.0877
     71  N         57.8750   15.3880   15.1130 N.am   89  GLU89      -0.1979
     72  CA        56.5040   14.9350   14.9360 C.3    89  GLU89       0.1602
     73  C         55.7660   14.7120   16.2510 C.2    89  GLU89       0.2287
     74  O         56.3470   14.7760   17.3270 O.2    89  GLU89      -0.2864
     75  CB        56.4900   13.6090   14.1590 C.3    89  GLU89       0.0415
     76  CG        56.9020   12.3990   14.9870 C.3    89  GLU89       0.1163
     77  CD        58.4030   12.2170   15.0840 C.2    89  GLU89       0.3649
     78  OE1       59.0090   11.7930   14.0750 O.co2  89  GLU89      -0.2457
     79  OE2       58.9810   12.4890   16.1570 O.co2  89  GLU89      -0.2457
     80  N         60.4450   18.6890    7.7320 N.3   126  THR126     -0.1203
     81  CA        61.7050   18.8330    8.4570 C.3   126  THR126      0.1994
     82  C         62.1150   17.4960    9.0680 C.2   126  THR126      0.2618
     83  O         63.3090   17.1970    9.1810 O.2   126  THR126     -0.2717
     84  CB        61.5840   19.9640    9.4960 C.3   126  THR126      0.1784
     85  OG1       61.1340   19.4670   10.7620 O.3   126  THR126     -0.2211
     86  CG2       60.5350   20.9800    9.0530 C.3   126  THR126      0.0376
     87  N         61.1350   16.6770    9.4380 N.am  127  GLY127     -0.1956
     88  CA        61.4150   15.3760   10.0210 C.3   127  GLY127      0.1869
     89  C         60.9520   14.2410    9.1310 C.2   127  GLY127      0.2309
     90  O         60.7910   13.1010    9.5800 O.2   127  GLY127     -0.2863
     91  N         62.3690   12.4090    7.0650 N.3   129  THR129     -0.1203
     92  CA        63.3140   11.3160    6.8900 C.3   129  THR129      0.1994
     93  C         63.5650   10.5480    8.1860 C.2   129  THR129      0.2618
     94  O         64.6300    9.9440    8.3700 O.2   129  THR129     -0.2717
     95  CB        64.6670   11.8090    6.3370 C.3   129  THR129      0.1784
     96  OG1       65.2960   12.6910    7.2730 O.3   129  THR129     -0.2211
     97  CG2       64.4560   12.6040    5.0560 C.3   129  THR129      0.0376
     98  N         62.5750   10.5730    9.0750 N.am  130  ALA130     -0.1965
     99  CA        62.6810    9.8010   10.3170 C.3   130  ALA130      0.1728
    100  C         61.6510    8.6690   10.3840 C.2   130  ALA130      0.2616
    101  O         61.4900    7.8730    9.4510 O.2   130  ALA130     -0.2715
    102  CB        62.5700   10.7240   11.5260 C.3   130  ALA130      0.0334
    103  N         60.9540    8.5970   11.5200 N.am  131  TYR131     -0.1974
    104  CA        59.9660    7.5780   11.7950 C.3   131  TYR131      0.1639
    105  C         58.9640    7.3820   10.6550 C.2   131  TYR131      0.2290
    106  O         58.6740    6.2700   10.2150 O.2   131  TYR131     -0.2864
    107  CB        59.1480    7.9040   13.0350 C.3   131  TYR131      0.0560
    108  CG        58.5940    6.7140   13.7760 C.ar  131  TYR131     -0.0198
    109  CD1       58.1720    6.9640   15.0720 C.ar  131  TYR131     -0.0009
    110  CD2       58.4640    5.4150   13.2990 C.ar  131  TYR131     -0.0009
    111  CE1       57.6440    5.9490   15.8530 C.ar  131  TYR131      0.0417
    112  CE2       57.9450    4.3950   14.0650 C.ar  131  TYR131      0.0417
    113  CZ        57.5330    4.6680   15.3500 C.ar  131  TYR131      0.1957
    114  OH        57.0090    3.6550   16.1180 O.3   131  TYR131     -0.2866
    115  N         60.6120    5.6330    8.3700 N.3   134  SER134     -0.1217
    116  CA        60.4530    4.2700    8.8460 C.3   134  SER134      0.1889
    117  C         59.1070    3.6860    8.4340 C.2   134  SER134      0.2288
    118  O         59.0720    2.5310    8.0130 O.2   134  SER134     -0.2866
    119  CB        60.5540    4.1940   10.3740 C.3   134  SER134      0.2089
    120  OG        61.8910    4.4490   10.7570 O.3   134  SER134     -0.2183
    121  N         59.2080   14.1470   18.9930 N.3   186  ASP186     -0.1225
    122  CA        60.6510   14.1440   18.7710 C.3   186  ASP186      0.1805
    123  C         61.3490   13.2160   19.7680 C.2   186  ASP186      0.2598
    124  O         62.5280   13.4190   20.0710 O.2   186  ASP186     -0.2718
    125  CB        61.2450   15.5490   18.8780 C.3   186  ASP186      0.1424
    126  CG        60.5200   16.5820   18.0480 C.2   186  ASP186      0.3668
    127  OD1       59.6300   16.2060   17.2560 O.co2 186  ASP186     -0.2456
    128  OD2       60.8300   17.7800   18.1860 O.co2 186  ASP186     -0.2456
    129  N         60.6330   12.2160   20.2660 N.am  187  GLY187     -0.1957
    130  CA        61.1870   11.2700   21.2100 C.3   187  GLY187      0.1869
    131  C         60.8600   11.5850   22.6520 C.2   187  GLY187      0.2309
    132  O         60.8990   10.6900   23.5080 O.2   187  GLY187     -0.2863
    133  N         72.6830    8.7430    4.3350 N.3   226  PHE226     -0.1241
    134  CA        71.8960    7.5120    4.2070 C.3   226  PHE226      0.1605
    135  C         72.6410    6.4450    3.4300 C.2   226  PHE226      0.2264
    136  O         72.3040    5.2650    3.4860 O.2   226  PHE226     -0.2867
    137  CB        70.5410    7.8220    3.5650 C.3   226  PHE226      0.0534
    138  CG        69.5420    8.2130    4.6570 C.ar  226  PHE226     -0.0203
    139  CD1       70.0110    8.3400    5.9600 C.ar  226  PHE226     -0.0042
    140  CD2       68.2090    8.4410    4.3690 C.ar  226  PHE226     -0.0042
    141  CE1       69.1550    8.6950    6.9840 C.ar  226  PHE226     -0.0003
    142  CE2       67.3470    8.7900    5.3930 C.ar  226  PHE226     -0.0003
    143  CZ        67.8180    8.9140    6.6900 C.ar  226  PHE226     -0.0000
@<TRIPOS>BOND
     1   135   136    2
     2   135   134    1
     3   137   134    1
     4   137   138    1
     5   134   133    1
     6   140   138   ar
     7   140   142   ar
     8   138   139   ar
     9    97    95    1
    10   142   143   ar
    11    54    52   ar
    12    54    53   ar
    13   139   141   ar
    14    52    50   ar
    15    95    92    1
    16    95    96    1
    17   143   141   ar
    18    53    51   ar
    19    92    91    1
    20    92    93    1
    21    50    49   ar
    22    80    81    1
    23   118   117    2
    24    51    49   ar
    25    93    94    2
    26    93    98   am
    27   115   116    1
    28   117   116    1
    29    81    82    1
    30    81    84    1
    31    49    48    1
    32   116   119    1
    33    86    84    1
    34    82    83    2
    35    82    87   am
    36    98    99    1
    37    89    90    2
    38    89    88    1
    39    87    88    1
    40   101   100    2
    41    84    85    1
    42    47    46    2
    43    48    45    1
    44   106   105    2
    45    39    37    1
    46    99   100    1
    47    99   102    1
    48    45    46    1
    49    45    44    1
    50   119   120    1
    51   100   103   am
    52    46    55   am
    53   105   104    1
    54    38    36    1
    55    43    42    2
    56    55    56    1
    57    44    42   am
    58   103   104    1
    59    56    57    1
    60    56    59    1
    61    58    57    2
    62    62    60    1
    63    37    36    1
    64   104   107    1
    65    42    41    1
    66    36    33    1
    67    40    41    1
    68    40    34   am
    69    59    60    1
    70    60    61    1
    71    66    65    2
    72   107   108    1
    73    33    34    1
    74    33    32    1
    75     7     6   ar
    76    34    35    2
    77   110   108   ar
    78   110   112   ar
    79    69    68    2
    80   108   109   ar
    81     8     6   ar
    82    65    64    1
    83    65    71   am
    84   112   113   ar
    85     6     5    1
    86    78    77   ar
    87    75    72    1
    88    75    76    1
    89    64    67    1
    90    64    63    1
    91    32    23   am
    92    68    67    1
    93    68    70   am
    94    72    71    1
    95    72    73    1
    96    76    77    1
    97   109   111   ar
    98    77    79   ar
    99   113   111   ar
   100   113   114    1
   101    23    24    2
   102    23    22    1
   103     5     2    1
   104    20    18    1
   105    73    74    2
   106    30    29    1
   107     2     1    1
   108     2     3    1
   109    22    21    1
   110    22    25    1
   111    27    28    1
   112    27    26    1
   113    19    18    1
   114    18    17    1
   115   127   126   ar
   116    29    28    2
   117    29    31    1
   118    26    25    1
   119     3     4    2
   120     3     9   am
   121   126   128   ar
   122   126   125    1
   123    17    14    1
   124     9    10    1
   125   122   125    1
   126   122   121    1
   127   122   123    1
   128    13    14    1
   129    14    15    1
   130   123   124    2
   131   123   129   am
   132    10    11    1
   133   129   130    1
   134    15    16    2
   135    11    12    2
   136   130   131    1
   137   131   132    2
