@<TRIPOS>MOLECULE
tmp/1y3uA00.pdb
 148 146 0 0 0
SMALL
GASTEIGER

@<TRIPOS>ATOM
      1  N          7.3120    2.5280   24.0390 N.3    40  HIS40      -0.1241
      2  CA         6.2420    1.5260   24.0870 C.3    40  HIS40       0.1621
      3  C          6.1980    0.7020   22.8070 C.2    40  HIS40       0.2264
      4  O          5.4240   -0.2500   22.6480 O.2    40  HIS40      -0.2867
      5  CB         4.9190    2.2030   24.4020 C.3    40  HIS40       0.0745
      6  CG         4.2250    2.9410   23.3060 C.ar   40  HIS40       0.0817
      7  ND1        4.2400    4.3190   23.1710 N.ar   40  HIS40      -0.2268
      8  CD2        3.4650    2.4720   22.2780 C.ar   40  HIS40       0.1154
      9  CE1        3.5220    4.6620   22.0970 C.ar   40  HIS40       0.1986
     10  NE2        3.0330    3.5630   21.5440 N.ar   40  HIS40      -0.2212
     11  N         11.8840    5.1550   31.5620 N.3    76  TYR76      -0.1241
     12  CA        10.5530    4.9590   30.9870 C.3    76  TYR76       0.1605
     13  C          9.6130    4.3110   31.9930 C.2    76  TYR76       0.2264
     14  O          9.9390    3.2980   32.5980 O.2    76  TYR76      -0.2867
     15  CB        10.6460    4.0600   29.7660 C.3    76  TYR76       0.0534
     16  CG         9.3240    3.6170   29.1950 C.ar   76  TYR76      -0.0201
     17  CD1        8.3610    4.5350   28.7620 C.ar   76  TYR76      -0.0009
     18  CD2        9.0430    2.2510   29.0910 C.ar   76  TYR76      -0.0009
     19  CE1        7.1430    4.1300   28.2410 C.ar   76  TYR76       0.0417
     20  CE2        7.8280    1.8420   28.5620 C.ar   76  TYR76       0.0417
     21  CZ         6.8980    2.7740   28.1450 C.ar   76  TYR76       0.1957
     22  OH         5.6980    2.3270   27.6130 O.3    76  TYR76      -0.2866
     23  N          3.6530    6.6940   31.1230 N.3    81  LEU81      -0.1245
     24  CA         4.1260    6.9180   29.7730 C.3    81  LEU81       0.1561
     25  C          5.1510    8.0200   29.7150 C.2    81  LEU81       0.2260
     26  O          5.5920    8.5990   28.7400 O.2    81  LEU81      -0.2867
     27  CB         2.9730    7.2120   28.8060 C.3    81  LEU81       0.0270
     28  CG         1.9350    6.0890   28.6960 C.3    81  LEU81       0.0019
     29  CD1        0.9880    6.3350   27.5280 C.3    81  LEU81       0.0001
     30  CD2        2.5750    4.7150   28.5460 C.3    81  LEU81       0.0001
     31  N         -6.3120   13.5510   13.9490 N.3   171  ASP171     -0.1225
     32  CA        -5.4050   13.0910   15.0150 C.3   171  ASP171      0.1805
     33  C         -4.4810   12.0010   14.4870 C.2   171  ASP171      0.2598
     34  O         -4.7050   11.3790   13.4400 O.2   171  ASP171     -0.2718
     35  CB        -6.2060   12.5040   16.1620 C.3   171  ASP171      0.1424
     36  CG        -5.5530   12.3060   17.4980 C.2   171  ASP171      0.3668
     37  OD1       -4.3800   12.7050   17.6740 O.co2 171  ASP171     -0.2456
     38  OD2       -6.2150   11.7320   18.4100 O.co2 171  ASP171     -0.2456
     39  N         -3.4470   11.6960   15.2610 N.am  172  SER172     -0.1938
     40  CA        -2.7620   10.4240   15.0030 C.3   172  SER172      0.2055
     41  C         -3.5540    9.3100   15.6680 C.2   172  SER172      0.2643
     42  O         -4.4950    9.5120   16.4650 O.2   172  SER172     -0.2714
     43  CB        -1.3120   10.4660   15.4990 C.3   172  SER172      0.2130
     44  OG        -1.2650   10.8690   16.8560 O.3   172  SER172     -0.2179
     45  N         -3.2050    8.0720   15.3640 N.am  173  CYS173     -0.1953
     46  CA        -3.9100    6.9050   15.9070 C.3   173  CYS173      0.1843
     47  C         -3.0510    5.6570   15.9790 C.2   173  CYS173      0.2625
     48  O         -1.8380    5.6330   15.7550 O.2   173  CYS173     -0.2714
     49  CB        -5.1380    6.6730   15.0370 C.3   173  CYS173      0.0997
     50  SG        -6.4920    5.7180   15.7210 S.3   173  CYS173     -0.0797
     51  N         -3.6770    4.5460   16.3240 N.am  174  GLN174     -0.1963
     52  CA        -3.0360    3.2480   16.4260 C.3   174  GLN174      0.1733
     53  C         -2.2170    2.9330   15.1750 C.2   174  GLN174      0.2616
     54  O         -2.7250    3.0150   14.0550 O.2   174  GLN174     -0.2715
     55  CB        -4.1160    2.1770   16.5680 C.3   174  GLN174      0.0408
     56  CG        -3.6380    0.9400   17.2840 C.3   174  GLN174      0.0908
     57  CD        -4.7480   -0.0350   17.6140 C.2   174  GLN174      0.2608
     58  OE1       -4.6290   -1.2150   17.2950 O.2   174  GLN174     -0.2717
     59  NE2       -5.8000    0.4670   18.2510 N.am  174  GLN174     -0.0878
     60  N         -0.9540    2.6070   15.4100 N.am  175  GLY175     -0.1955
     61  CA        -0.0970    2.3370   14.2670 C.3   175  GLY175      0.1869
     62  C          0.8140    3.4960   13.9170 C.2   175  GLY175      0.2309
     63  O          1.7910    3.2870   13.2030 O.2   175  GLY175     -0.2863
     64  N          2.2070    5.3140   16.3990 N.3   177  SER177     -0.1217
     65  CA         3.0720    5.3610   17.5690 C.3   177  SER177      0.1889
     66  C          4.5510    5.3740   17.2060 C.2   177  SER177      0.2288
     67  O          4.9100    4.5330   16.3700 O.2   177  SER177     -0.2866
     68  CB         2.9000    4.1210   18.4660 C.3   177  SER177      0.2089
     69  OG         1.7120    4.2460   19.1940 O.3   177  SER177     -0.2183
     70  N          5.0470   10.3740   18.4280 N.3   191  VAL191     -0.1231
     71  CA         3.6740    9.9580   18.7340 C.3   191  VAL191      0.1692
     72  C          3.6320    8.9980   19.9200 C.2   191  VAL191      0.2593
     73  O          4.2030    7.9040   19.8630 O.2   191  VAL191     -0.2718
     74  CB         3.0510    9.2760   17.4990 C.3   191  VAL191      0.0266
     75  CG1        1.6280    8.8340   17.8230 C.3   191  VAL191      0.0020
     76  CG2        3.1060   10.1790   16.2720 C.3   191  VAL191      0.0020
     77  N          2.9920    9.3730   21.0090 N.am  192  SER192     -0.1938
     78  CA         3.0520    8.6310   22.2710 C.3   192  SER192      0.2055
     79  C          1.6990    8.0730   22.6590 C.2   192  SER192      0.2643
     80  O          1.5200    6.8550   22.6080 O.2   192  SER192     -0.2714
     81  CB         3.6600    9.4940   23.3640 C.3   192  SER192      0.2130
     82  OG         3.8010    8.7680   24.5610 O.3   192  SER192     -0.2179
     83  N          0.7360    8.9100   23.0270 N.am  193  TRP193     -0.1959
     84  CA        -0.5550    8.3580   23.4560 C.3   193  TRP193      0.1771
     85  C         -1.7120    9.3170   23.2350 C.2   193  TRP193      0.2620
     86  O         -1.5680   10.4460   22.7940 O.2   193  TRP193     -0.2715
     87  CB        -0.4520    7.9530   24.9260 C.3   193  TRP193      0.0590
     88  CG        -0.1160    8.9990   25.9350 C.ar  193  TRP193      0.0006
     89  CD1        1.0940    9.4860   26.3140 C.ar  193  TRP193      0.0946
     90  CD2       -1.0940    9.7030   26.7350 C.ar  193  TRP193      0.0152
     91  NE1        0.9540   10.4470   27.2880 N.ar  193  TRP193     -0.2442
     92  CE2       -0.3870   10.5920   27.5620 C.ar  193  TRP193      0.0810
     93  CE3       -2.4830    9.6330   26.8030 C.ar  193  TRP193      0.0012
     94  CZ2       -1.0530   11.4300   28.4660 C.ar  193  TRP193      0.0191
     95  CZ3       -3.1570   10.4590   27.6970 C.ar  193  TRP193      0.0001
     96  CH2       -2.4190   11.3330   28.5030 C.ar  193  TRP193      0.0015
     97  N         -2.9210    8.8390   23.5270 N.am  194  GLY194     -0.1940
     98  CA        -4.1150    9.6680   23.4080 C.3   194  GLY194      0.2014
     99  C         -5.2790    8.8750   24.0100 C.2   194  GLY194      0.2640
    100  O         -5.0100    7.8060   24.5460 O.2   194  GLY194     -0.2714
    101  N         -6.4830    9.3900   23.9220 N.am  195  SER195     -0.1935
    102  CA        -7.6950    8.7490   24.4230 C.3   195  SER195      0.2055
    103  C         -8.5350    8.4760   23.2020 C.2   195  SER195      0.2644
    104  O         -9.1650    9.3440   22.6060 O.2   195  SER195     -0.2714
    105  CB        -8.4010    9.6320   25.4380 C.3   195  SER195      0.2130
    106  OG        -9.6190    9.0780   25.8750 O.3   195  SER195     -0.2179
    107  N         -8.5080    7.2440   22.7240 N.am  196  GLY196     -0.1939
    108  CA        -9.0730    7.0230   21.4000 C.3   196  GLY196      0.2014
    109  C         -8.2910    7.7730   20.3270 C.2   196  GLY196      0.2639
    110  O         -7.1300    8.1170   20.5010 O.2   196  GLY196     -0.2714
    111  N         -8.9500    8.0540   19.2080 N.am  197  CYS197     -0.1967
    112  CA        -8.4110    8.9100   18.1720 C.3   197  CYS197      0.1712
    113  C         -9.4640    9.8820   17.6480 C.2   197  CYS197      0.2296
    114  O        -10.6050    9.5200   17.3610 O.2   197  CYS197     -0.2864
    115  CB        -7.8710    8.1130   16.9720 C.3   197  CYS197      0.0983
    116  SG        -6.9580    6.6410   17.4870 S.3   197  CYS197     -0.0798
    117  N         -9.9340   15.7160   23.1950 N.3   202  LYS202     -0.1245
    118  CA        -8.9590   14.7140   23.5950 C.3   202  LYS202      0.1561
    119  C         -7.8460   14.6780   22.5540 C.2   202  LYS202      0.2260
    120  O         -7.7790   13.7840   21.7240 O.2   202  LYS202     -0.2867
    121  CB        -9.6280   13.3530   23.7210 C.3   202  LYS202      0.0271
    122  CG       -10.7080   13.2770   24.7950 C.3   202  LYS202      0.0035
    123  CD       -10.1160   13.2020   26.1900 C.3   202  LYS202      0.0206
    124  CE       -11.0070   12.3710   27.1280 C.3   202  LYS202      0.1093
    125  NZ       -12.3530   12.9380   27.3310 N.3   202  LYS202     -0.1314
    126  N         -4.0480   14.5210   20.7930 N.3   204  GLY204     -0.1210
    127  CA        -2.9660   13.5570   20.9050 C.3   204  GLY204      0.1956
    128  C         -1.8890   14.0970   21.8380 C.2   204  GLY204      0.2612
    129  O         -1.7000   15.3070   21.9060 O.2   204  GLY204     -0.2717
    130  N         -1.2000   13.1920   22.5170 N.am  205  VAL205     -0.1965
    131  CA        -0.0750   13.4980   23.3880 C.3   205  VAL205      0.1727
    132  C          1.2300   12.9380   22.8030 C.2   205  VAL205      0.2616
    133  O          1.2810   11.7930   22.3320 O.2   205  VAL205     -0.2715
    134  CB        -0.2960   12.9500   24.8020 C.3   205  VAL205      0.0290
    135  CG1        0.7860   13.3980   25.7560 C.3   205  VAL205      0.0023
    136  CG2       -1.6640   13.3990   25.3160 C.3   205  VAL205      0.0023
    137  N          2.2500   13.7750   22.8640 N.am  206  TYR206     -0.1974
    138  CA         3.5500   13.5760   22.2460 C.3   206  TYR206      0.1639
    139  C          4.7190   13.7460   23.1970 C.2   206  TYR206      0.2290
    140  O          4.7230   14.6360   24.0480 O.2   206  TYR206     -0.2864
    141  CB         3.6770   14.5850   21.0820 C.3   206  TYR206      0.0560
    142  CG         2.5500   14.3130   20.1040 C.ar  206  TYR206     -0.0198
    143  CD1        1.3390   14.9950   20.2280 C.ar  206  TYR206     -0.0009
    144  CD2        2.7060   13.3770   19.1080 C.ar  206  TYR206     -0.0009
    145  CE1        0.3100   14.7500   19.3470 C.ar  206  TYR206      0.0417
    146  CE2        1.6580   13.1500   18.2370 C.ar  206  TYR206      0.0417
    147  CZ         0.4640   13.8280   18.3430 C.ar  206  TYR206      0.1957
    148  OH        -0.5560   13.5610   17.4630 O.3   206  TYR206     -0.2866
@<TRIPOS>BOND
     1    63    62    2
     2    34    33    2
     3    62    61    1
     4    31    32    1
     5    54    53    2
     6    61    60    1
     7    33    32    1
     8    33    39   am
     9    40    39    1
    10    40    43    1
    11    40    41    1
    12    32    35    1
    13    49    50    1
    14    49    46    1
    15    53    60   am
    16    53    52    1
    17    45    41   am
    18    45    46    1
    19    43    44    1
    20    41    42    2
    21    50   116    1
    22    48    47    2
    23    46    47    1
    24    47    51   am
    25    35    36    1
    26    76    74    1
    27    51    52    1
    28    67    66    2
    29    64    65    1
    30    52    55    1
    31    55    56    1
    32   115   116    1
    33   115   112    1
    34    66    65    1
    35    56    57    1
    36    58    57    2
    37   114   113    2
    38   148   147    1
    39    36    37   ar
    40    36    38   ar
    41    74    75    1
    42    74    71    1
    43    65    68    1
    44    57    59   am
    45   113   112    1
    46   112   111    1
    47   146   147   ar
    48   146   144   ar
    49   147   145   ar
    50    70    71    1
    51    68    69    1
    52    71    72    1
    53   144   142   ar
    54   111   109   am
    55   145   143   ar
    56    73    72    2
    57    72    77   am
    58   142   143   ar
    59   142   141    1
    60   109   110    2
    61   109   108    1
    62   126   127    1
    63   127   128    1
    64    77    78    1
    65   141   138    1
    66   108   107    1
    67    10     9   ar
    68    10     8   ar
    69   120   119    2
    70   128   129    2
    71   128   130   am
    72     9     7   ar
    73   138   137    1
    74   138   139    1
    75    78    79    1
    76    78    81    1
    77     8     6   ar
    78   133   132    2
    79   130   131    1
    80   119   118    1
    81   104   103    2
    82    80    79    2
    83     4     3    2
    84    79    83   am
    85   107   103   am
    86    86    85    2
    87   132   137   am
    88   132   131    1
    89     3     2    1
    90    83    84    1
    91     7     6   ar
    92   117   118    1
    93   139   140    2
    94   103   102    1
    95    85    84    1
    96    85    97   am
    97     6     5    1
    98    81    82    1
    99   131   134    1
   100    98    97    1
   101    98    99    1
   102    84    87    1
   103   118   121    1
   104   121   122    1
   105   101    99   am
   106   101   102    1
   107    99   100    2
   108     1     2    1
   109     2     5    1
   110   102   105    1
   111   122   123    1
   112   134   136    1
   113   134   135    1
   114    87    88    1
   115   105   106    1
   116    88    89   ar
   117    88    90   ar
   118   123   124    1
   119    89    91   ar
   120    90    93   ar
   121    90    92   ar
   122    93    95   ar
   123   124   125    1
   124    91    92   ar
   125    29    28    1
   126    92    94   ar
   127    22    21    1
   128    95    96   ar
   129    21    19   ar
   130    21    20   ar
   131    19    17   ar
   132    94    96   ar
   133    30    28    1
   134    20    18   ar
   135    28    27    1
   136    26    25    2
   137    17    16   ar
   138    27    24    1
   139    18    16   ar
   140    16    15    1
   141    25    24    1
   142    15    12    1
   143    24    23    1
   144    12    11    1
   145    12    13    1
   146    13    14    2
