@<TRIPOS>MOLECULE
tmp/1y3vA00.pdb
 178 175 0 0 0
SMALL
GASTEIGER

@<TRIPOS>ATOM
      1  N          7.2910    2.5400   24.0180 N.3    40  HIS40      -0.1241
      2  CA         6.2230    1.5410   24.0270 C.3    40  HIS40       0.1621
      3  C          6.1790    0.7020   22.7630 C.2    40  HIS40       0.2264
      4  O          5.4420   -0.2860   22.6870 O.2    40  HIS40      -0.2867
      5  CB         4.8860    2.2020   24.3320 C.3    40  HIS40       0.0745
      6  CG         4.1890    2.9660   23.2670 C.ar   40  HIS40       0.0817
      7  ND1        4.1780    4.3420   23.1420 N.ar   40  HIS40      -0.2268
      8  CD2        3.3990    2.5160   22.2550 C.ar   40  HIS40       0.1154
      9  CE1        3.4450    4.7120   22.0990 C.ar   40  HIS40       0.1986
     10  NE2        2.9540    3.6110   21.5310 N.ar   40  HIS40      -0.2212
     11  N         11.8670    5.1460   31.5170 N.3    76  TYR76      -0.1241
     12  CA        10.5380    4.9310   30.9650 C.3    76  TYR76       0.1605
     13  C          9.6200    4.2700   31.9620 C.2    76  TYR76       0.2264
     14  O          9.9510    3.2620   32.6020 O.2    76  TYR76      -0.2867
     15  CB        10.6960    4.0210   29.7480 C.3    76  TYR76       0.0534
     16  CG         9.4170    3.4920   29.1650 C.ar   76  TYR76      -0.0201
     17  CD1        8.4380    4.3970   28.7330 C.ar   76  TYR76      -0.0009
     18  CD2        9.1440    2.1370   29.0400 C.ar   76  TYR76      -0.0009
     19  CE1        7.2290    3.9810   28.1870 C.ar   76  TYR76       0.0417
     20  CE2        7.9520    1.7120   28.4880 C.ar   76  TYR76       0.0417
     21  CZ         7.0120    2.6330   28.0720 C.ar   76  TYR76       0.1957
     22  OH         5.8270    2.1760   27.5230 O.3    76  TYR76      -0.2866
     23  N          5.9040    2.4860   32.0900 N.3    78  SER78      -0.1202
     24  CA         4.8980    1.9280   31.2040 C.3    78  SER78       0.2020
     25  C          3.4820    2.2400   31.6810 C.2    78  SER78       0.2619
     26  O          2.5470    2.0820   30.8950 O.2    78  SER78      -0.2717
     27  CB         5.0240    0.4080   31.0860 C.3    78  SER78       0.2103
     28  OG         4.9360   -0.2240   32.3520 O.3    78  SER78      -0.2182
     29  N          3.3810    2.6660   32.9210 N.am   79  ASN79      -0.1960
     30  CA         2.1180    3.0720   33.5030 C.3    79  ASN79       0.1819
     31  C          1.6970    4.4780   33.0820 C.2    79  ASN79       0.2622
     32  O          0.5350    4.7270   32.7920 O.2    79  ASN79      -0.2715
     33  CB         2.1420    3.1200   35.0400 C.3    79  ASN79       0.1195
     34  CG         2.6680    1.9030   35.7470 C.2    79  ASN79       0.2630
     35  OD1        3.5830    1.9720   36.5790 O.2    79  ASN79      -0.2716
     36  ND2        2.0810    0.7580   35.4100 N.am   79  ASN79      -0.0877
     37  N          2.6570    5.3790   33.0970 N.am   80  THR80      -0.1937
     38  CA         2.4020    6.7770   32.8800 C.3    80  THR80       0.2028
     39  C          2.8550    7.2580   31.5020 C.2    80  THR80       0.2642
     40  O          2.4760    8.3730   31.1350 O.2    80  THR80      -0.2714
     41  CB         3.1560    7.6160   33.9150 C.3    80  THR80       0.1808
     42  OG1        4.5710    7.4780   33.7630 O.3    80  THR80      -0.2208
     43  CG2        2.7800    7.1530   35.3390 C.3    80  THR80       0.0379
     44  N          3.6520    6.4350   30.8500 N.am   81  LEU81      -0.1977
     45  CA         4.2490    6.7620   29.5510 C.3    81  LEU81       0.1596
     46  C          5.1980    7.9520   29.6650 C.2    81  LEU81       0.2287
     47  O          5.6660    8.5960   28.7060 O.2    81  LEU81      -0.2864
     48  CB         3.2190    6.9540   28.4600 C.3    81  LEU81       0.0297
     49  CG         2.5030    5.7340   27.9080 C.3    81  LEU81       0.0022
     50  CD1        2.3180    5.8750   26.4050 C.3    81  LEU81       0.0001
     51  CD2        3.2080    4.4160   28.1730 C.3    81  LEU81       0.0001
     52  N         -2.2100   13.8660   34.2920 N.3   155  GLN155     -0.1245
     53  CA        -1.4900   12.8600   33.4990 C.3   155  GLN155      0.1566
     54  C         -0.3830   13.3820   32.6020 C.2   155  GLN155      0.2260
     55  O          0.2960   12.6080   31.9220 O.2   155  GLN155     -0.2867
     56  CB        -2.4790   12.1570   32.5780 C.3   155  GLN155      0.0367
     57  CG        -3.6330   11.4360   33.2480 C.3   155  GLN155      0.0905
     58  CD        -4.4980   10.7600   32.1920 C.2   155  GLN155      0.2608
     59  OE1       -5.4250   11.3650   31.6710 O.2   155  GLN155     -0.2717
     60  NE2       -4.1780    9.5140   31.8570 N.am  155  GLN155     -0.0878
     61  N         -6.2590   13.5140   14.0220 N.3   171  ASP171     -0.1225
     62  CA        -5.3710   13.0370   15.1020 C.3   171  ASP171      0.1805
     63  C         -4.4130   11.9640   14.5860 C.2   171  ASP171      0.2598
     64  O         -4.6250   11.4320   13.4930 O.2   171  ASP171     -0.2718
     65  CB        -6.1920   12.4610   16.2370 C.3   171  ASP171      0.1424
     66  CG        -5.5520   12.2420   17.5790 C.2   171  ASP171      0.3668
     67  OD1       -4.3630   12.6040   17.7670 O.co2 171  ASP171     -0.2456
     68  OD2       -6.2300   11.6630   18.4720 O.co2 171  ASP171     -0.2456
     69  N         -3.3900   11.6180   15.3560 N.am  172  SER172     -0.1938
     70  CA        -2.6620   10.3750   15.0570 C.3   172  SER172      0.2055
     71  C         -3.4570    9.2580   15.6960 C.2   172  SER172      0.2643
     72  O         -4.4260    9.4850   16.4420 O.2   172  SER172     -0.2714
     73  CB        -1.2190   10.4850   15.5250 C.3   172  SER172      0.2130
     74  OG        -1.1810   10.8770   16.8760 O.3   172  SER172     -0.2179
     75  N         -3.1270    8.0060   15.4190 N.am  173  CYS173     -0.1953
     76  CA        -3.9120    6.8750   15.9310 C.3   173  CYS173      0.1843
     77  C         -3.0360    5.6270   16.0210 C.2   173  CYS173      0.2625
     78  O         -1.8240    5.6700   15.8050 O.2   173  CYS173     -0.2714
     79  CB        -5.1330    6.6450   15.0710 C.3   173  CYS173      0.0997
     80  SG        -6.5190    5.6840   15.7460 S.3   173  CYS173     -0.0797
     81  N         -3.6610    4.4990   16.3360 N.am  174  GLN174     -0.1963
     82  CA        -2.9010    3.2680   16.4900 C.3   174  GLN174      0.1733
     83  C         -2.1670    2.9420   15.1900 C.2   174  GLN174      0.2616
     84  O         -2.7650    2.9820   14.1200 O.2   174  GLN174     -0.2715
     85  CB        -3.8170    2.1000   16.8540 C.3   174  GLN174      0.0408
     86  CG        -3.0720    0.7860   17.0320 C.3   174  GLN174      0.0908
     87  CD        -3.9890   -0.4000   17.2410 C.2   174  GLN174      0.2608
     88  OE1       -5.0980   -0.4380   16.7160 O.2   174  GLN174     -0.2717
     89  NE2       -3.5280   -1.3750   18.0090 N.am  174  GLN174     -0.0878
     90  N         -0.9020    2.6220   15.3790 N.am  175  GLY175     -0.1955
     91  CA        -0.0570    2.3130   14.2330 C.3   175  GLY175      0.1869
     92  C          0.8390    3.4870   13.8820 C.2   175  GLY175      0.2309
     93  O          1.8090    3.3260   13.1500 O.2   175  GLY175     -0.2863
     94  N          2.1950    5.3230   16.4110 N.3   177  SER177     -0.1217
     95  CA         3.0740    5.3700   17.5590 C.3   177  SER177      0.1889
     96  C          4.5410    5.3590   17.1670 C.2   177  SER177      0.2288
     97  O          4.8840    4.5370   16.3080 O.2   177  SER177     -0.2866
     98  CB         2.9320    4.1130   18.4440 C.3   177  SER177      0.2089
     99  OG         1.7650    4.2100   19.2310 O.3   177  SER177     -0.2183
    100  N          5.0610   10.3950   18.4220 N.3   191  VAL191     -0.1231
    101  CA         3.6970    9.9680   18.7430 C.3   191  VAL191      0.1692
    102  C          3.6590    8.9990   19.9080 C.2   191  VAL191      0.2593
    103  O          4.2760    7.9130   19.8380 O.2   191  VAL191     -0.2718
    104  CB         3.0960    9.2600   17.5120 C.3   191  VAL191      0.0266
    105  CG1        1.7150    8.7570   17.8430 C.3   191  VAL191      0.0020
    106  CG2        3.1190   10.1440   16.2560 C.3   191  VAL191      0.0020
    107  N          2.9830    9.3530   20.9940 N.am  192  SER192     -0.1938
    108  CA         3.0140    8.5980   22.2350 C.3   192  SER192      0.2055
    109  C          1.6720    8.0610   22.6640 C.2   192  SER192      0.2643
    110  O          1.4990    6.8470   22.6500 O.2   192  SER192     -0.2714
    111  CB         3.6620    9.4600   23.3210 C.3   192  SER192      0.2130
    112  OG         3.8160    8.7390   24.5340 O.3   192  SER192     -0.2179
    113  N          0.7110    8.8860   23.0590 N.am  193  TRP193     -0.1959
    114  CA        -0.5650    8.3410   23.5520 C.3   193  TRP193      0.1771
    115  C         -1.7110    9.3200   23.3280 C.2   193  TRP193      0.2620
    116  O         -1.5360   10.3890   22.8030 O.2   193  TRP193     -0.2715
    117  CB        -0.4870    7.9480   25.0090 C.3   193  TRP193      0.0590
    118  CG        -0.1320    8.9810   26.0150 C.ar  193  TRP193      0.0006
    119  CD1        1.0680    9.4780   26.3770 C.ar  193  TRP193      0.0946
    120  CD2       -1.0870    9.6920   26.8530 C.ar  193  TRP193      0.0152
    121  NE1        0.9630   10.4290   27.3620 N.ar  193  TRP193     -0.2442
    122  CE2       -0.3620   10.5740   27.6670 C.ar  193  TRP193      0.0810
    123  CE3       -2.4710    9.6030   26.9250 C.ar  193  TRP193      0.0012
    124  CZ2       -0.9940   11.4260   28.6110 C.ar  193  TRP193      0.0191
    125  CZ3       -3.1110   10.4220   27.8390 C.ar  193  TRP193      0.0001
    126  CH2       -2.3530   11.2860   28.6340 C.ar  193  TRP193      0.0015
    127  N         -2.9100    8.8920   23.7190 N.am  194  GLY194     -0.1940
    128  CA        -4.0910    9.7440   23.5300 C.3   194  GLY194      0.2014
    129  C         -5.2720    8.9280   24.0500 C.2   194  GLY194      0.2640
    130  O         -5.0640    7.8470   24.5690 O.2   194  GLY194     -0.2714
    131  N         -6.4720    9.4610   23.9140 N.am  195  SER195     -0.1935
    132  CA        -7.6340    8.7520   24.4720 C.3   195  SER195      0.2055
    133  C         -8.4980    8.4260   23.2780 C.2   195  SER195      0.2644
    134  O         -9.1060    9.3140   22.6870 O.2   195  SER195     -0.2714
    135  CB        -8.3380    9.6160   25.5150 C.3   195  SER195      0.2130
    136  OG        -9.5540    8.9830   25.8820 O.3   195  SER195     -0.2179
    137  N         -8.5210    7.1940   22.8090 N.am  196  GLY196     -0.1939
    138  CA        -9.1130    6.9500   21.4880 C.3   196  GLY196      0.2014
    139  C         -8.3520    7.6940   20.4000 C.2   196  GLY196      0.2639
    140  O         -7.1740    8.0170   20.5880 O.2   196  GLY196     -0.2714
    141  N         -8.9750    7.9940   19.2800 N.am  197  CYS197     -0.1967
    142  CA        -8.3960    8.8110   18.2380 C.3   197  CYS197      0.1712
    143  C         -9.4240    9.8210   17.7430 C.2   197  CYS197      0.2296
    144  O        -10.5810    9.4850   17.4570 O.2   197  CYS197     -0.2864
    145  CB        -7.9420    8.0030   17.0170 C.3   197  CYS197      0.0983
    146  SG        -6.9150    6.5880   17.5350 S.3   197  CYS197     -0.0798
    147  N         -9.9200   15.6950   23.2800 N.3   202  LYS202     -0.1245
    148  CA        -8.9150   14.7330   23.6780 C.3   202  LYS202      0.1561
    149  C         -7.8090   14.6970   22.6240 C.2   202  LYS202      0.2260
    150  O         -7.7380   13.8140   21.7560 O.2   202  LYS202     -0.2867
    151  CB        -9.5490   13.3480   23.8210 C.3   202  LYS202      0.0271
    152  CG       -10.8080   13.3210   24.6810 C.3   202  LYS202      0.0035
    153  CD       -11.6040   12.0420   24.5160 C.3   202  LYS202      0.0206
    154  CE       -11.8280   11.3100   25.8320 C.3   202  LYS202      0.1093
    155  NZ       -12.3480    9.9250   25.6260 N.3   202  LYS202     -0.1314
    156  N         -3.9620   14.5610   20.8300 N.3   204  GLY204     -0.1210
    157  CA        -2.8660   13.6100   20.9360 C.3   204  GLY204      0.1956
    158  C         -1.8180   14.1290   21.9090 C.2   204  GLY204      0.2612
    159  O         -1.6500   15.3410   22.0150 O.2   204  GLY204     -0.2717
    160  N         -1.1090   13.2160   22.5670 N.am  205  VAL205     -0.1965
    161  CA        -0.0020   13.5100   23.4600 C.3   205  VAL205      0.1727
    162  C          1.3020   12.9360   22.8900 C.2   205  VAL205      0.2616
    163  O          1.3210   11.8210   22.3750 O.2   205  VAL205     -0.2715
    164  CB        -0.2330   12.9810   24.8810 C.3   205  VAL205      0.0290
    165  CG1        0.8220   13.4750   25.8420 C.3   205  VAL205      0.0023
    166  CG2       -1.6030   13.4220   25.3580 C.3   205  VAL205      0.0023
    167  N          2.3490   13.7370   23.0040 N.am  206  TYR206     -0.1974
    168  CA         3.5960   13.5100   22.2850 C.3   206  TYR206      0.1639
    169  C          4.7730   13.6610   23.2070 C.2   206  TYR206      0.2290
    170  O          4.7570   14.5170   24.0720 O.2   206  TYR206     -0.2864
    171  CB         3.6980   14.4990   21.1020 C.3   206  TYR206      0.0560
    172  CG         2.5770   14.2580   20.1130 C.ar  206  TYR206     -0.0198
    173  CD1        1.3440   14.9140   20.2570 C.ar  206  TYR206     -0.0009
    174  CD2        2.6980   13.3810   19.0670 C.ar  206  TYR206     -0.0009
    175  CE1        0.3200   14.6800   19.3430 C.ar  206  TYR206      0.0417
    176  CE2        1.6850   13.1530   18.1790 C.ar  206  TYR206      0.0417
    177  CZ         0.4730   13.7990   18.3040 C.ar  206  TYR206      0.1957
    178  OH        -0.5350   13.5350   17.3930 O.3   206  TYR206     -0.2866
@<TRIPOS>BOND
     1    93    92    2
     2    64    63    2
     3    92    91    1
     4    61    62    1
     5    84    83    2
     6    91    90    1
     7    63    62    1
     8    63    69   am
     9    70    69    1
    10    70    73    1
    11    70    71    1
    12    79    80    1
    13    79    76    1
    14    62    65    1
    15    83    90   am
    16    83    82    1
    17    75    71   am
    18    75    76    1
    19    73    74    1
    20    71    72    2
    21    80   146    1
    22    78    77    2
    23    76    77    1
    24    77    81   am
    25    65    66    1
    26   106   104    1
    27    97    96    2
    28    81    82    1
    29    94    95    1
    30    82    85    1
    31    88    87    2
    32    85    86    1
    33   145   146    1
    34   145   142    1
    35    86    87    1
    36    96    95    1
    37    87    89   am
    38   178   177    1
    39   144   143    2
    40   104   105    1
    41   104   101    1
    42    95    98    1
    43    66    67   ar
    44    66    68   ar
    45   143   142    1
    46   176   177   ar
    47   176   174   ar
    48   142   141    1
    49   177   175   ar
    50   100   101    1
    51    98    99    1
    52   101   102    1
    53   174   172   ar
    54   141   139   am
    55   175   173   ar
    56   103   102    2
    57   102   107   am
    58   172   173   ar
    59   172   171    1
    60   139   140    2
    61   139   138    1
    62   156   157    1
    63   157   158    1
    64   107   108    1
    65   171   168    1
    66   138   137    1
    67    10     9   ar
    68    10     8   ar
    69   150   149    2
    70   158   159    2
    71   158   160   am
    72     9     7   ar
    73   108   109    1
    74   108   111    1
    75     8     6   ar
    76   168   167    1
    77   168   169    1
    78   163   162    2
    79   160   161    1
    80   149   148    1
    81   110   109    2
    82   109   113   am
    83     4     3    2
    84   134   133    2
    85     3     2    1
    86   116   115    2
    87   137   133   am
    88   162   167   am
    89   162   161    1
    90   113   114    1
    91     7     6   ar
    92   169   170    2
    93     6     5    1
    94   133   132    1
    95   147   148    1
    96   111   112    1
    97   115   114    1
    98   115   127   am
    99   161   164    1
   100   128   127    1
   101   128   129    1
   102   114   117    1
   103   148   151    1
   104   151   152    1
   105   131   129   am
   106   131   132    1
   107     1     2    1
   108     2     5    1
   109   129   130    2
   110   132   135    1
   111   153   152    1
   112   153   154    1
   113   164   166    1
   114   164   165    1
   115   117   118    1
   116   135   136    1
   117   155   154    1
   118   118   119   ar
   119   118   120   ar
   120   119   121   ar
   121    50    49    1
   122   120   123   ar
   123   120   122   ar
   124   123   125   ar
   125   121   122   ar
   126    22    21    1
   127   122   124   ar
   128   125   126   ar
   129    49    51    1
   130    49    48    1
   131    21    19   ar
   132    21    20   ar
   133    19    17   ar
   134    48    45    1
   135    20    18   ar
   136   124   126   ar
   137    47    46    2
   138    17    16   ar
   139    18    16   ar
   140    16    15    1
   141    45    46    1
   142    45    44    1
   143    15    12    1
   144    44    39   am
   145    26    25    2
   146    12    11    1
   147    12    13    1
   148    27    24    1
   149    27    28    1
   150    40    39    2
   151    24    25    1
   152    24    23    1
   153    39    38    1
   154    59    58    2
   155    25    29   am
   156    60    58   am
   157    55    54    2
   158    13    14    2
   159    58    57    1
   160    56    57    1
   161    56    53    1
   162    54    53    1
   163    32    31    2
   164    38    37    1
   165    38    41    1
   166    29    30    1
   167    31    37   am
   168    31    30    1
   169    53    52    1
   170    30    33    1
   171    42    41    1
   172    41    43    1
   173    33    34    1
   174    36    34   am
   175    34    35    2
