@<TRIPOS>MOLECULE
tmp/1y3wA00.pdb
 178 175 0 0 0
SMALL
GASTEIGER

@<TRIPOS>ATOM
      1  N          7.3090    2.5800   24.0110 N.3    40  HIS40      -0.1241
      2  CA         6.2570    1.5500   24.0430 C.3    40  HIS40       0.1621
      3  C          6.2470    0.7370   22.7600 C.2    40  HIS40       0.2264
      4  O          5.4900   -0.2300   22.6810 O.2    40  HIS40      -0.2867
      5  CB         4.9010    2.1750   24.3310 C.3    40  HIS40       0.0745
      6  CG         4.2210    2.9450   23.2530 C.ar   40  HIS40       0.0817
      7  ND1        4.2550    4.3260   23.1600 N.ar   40  HIS40      -0.2268
      8  CD2        3.4570    2.5260   22.2090 C.ar   40  HIS40       0.1154
      9  CE1        3.5620    4.7190   22.1070 C.ar   40  HIS40       0.1986
     10  NE2        3.0590    3.6460   21.5100 N.ar   40  HIS40      -0.2212
     11  N         11.8530    5.1400   31.5750 N.3    76  TYR76      -0.1241
     12  CA        10.5280    4.9530   30.9830 C.3    76  TYR76       0.1605
     13  C          9.5740    4.2940   31.9550 C.2    76  TYR76       0.2264
     14  O          9.9260    3.2770   32.5480 O.2    76  TYR76      -0.2867
     15  CB        10.6540    4.0670   29.7430 C.3    76  TYR76       0.0534
     16  CG         9.3540    3.5690   29.1650 C.ar   76  TYR76      -0.0201
     17  CD1        8.3840    4.4750   28.7580 C.ar   76  TYR76      -0.0009
     18  CD2        9.0950    2.2140   29.0240 C.ar   76  TYR76      -0.0009
     19  CE1        7.1800    4.0740   28.2220 C.ar   76  TYR76       0.0417
     20  CE2        7.8910    1.7950   28.4880 C.ar   76  TYR76       0.0417
     21  CZ         6.9520    2.7220   28.0950 C.ar   76  TYR76       0.1957
     22  OH         5.7610    2.2830   27.5660 O.3    76  TYR76      -0.2866
     23  N          5.8540    2.5240   32.1320 N.3    78  SER78      -0.1202
     24  CA         4.8290    1.9330   31.2950 C.3    78  SER78       0.2020
     25  C          3.3940    2.2830   31.6910 C.2    78  SER78       0.2619
     26  O          2.5160    2.2620   30.8320 O.2    78  SER78      -0.2717
     27  CB         4.9430    0.3990   31.2970 C.3    78  SER78       0.2103
     28  OG         5.4980   -0.1060   32.4940 O.3    78  SER78      -0.2182
     29  N          3.1490    2.5790   32.9410 N.am   79  ASN79      -0.1960
     30  CA         1.9380    3.0910   33.5260 C.3    79  ASN79       0.1819
     31  C          1.6550    4.5370   33.1160 C.2    79  ASN79       0.2622
     32  O          0.5150    4.8140   32.7630 O.2    79  ASN79      -0.2715
     33  CB         1.9620    3.1100   35.0570 C.3    79  ASN79       0.1195
     34  CG         2.4090    1.8230   35.7130 C.2    79  ASN79       0.2630
     35  OD1        2.1370    0.7300   35.2120 O.2    79  ASN79      -0.2716
     36  ND2        3.1000    1.9590   36.8470 N.am   79  ASN79      -0.0877
     37  N          2.6640    5.3940   33.2000 N.am   80  THR80      -0.1937
     38  CA         2.4260    6.8140   32.9530 C.3    80  THR80       0.2028
     39  C          2.8930    7.3370   31.6040 C.2    80  THR80       0.2642
     40  O          2.4800    8.4410   31.2260 O.2    80  THR80      -0.2714
     41  CB         3.1220    7.6140   34.0550 C.3    80  THR80       0.1808
     42  OG1        4.5200    7.3780   34.0810 O.3    80  THR80      -0.2208
     43  CG2        2.6390    7.0950   35.4140 C.3    80  THR80       0.0379
     44  N          3.7230    6.5620   30.9430 N.am   81  LEU81      -0.1977
     45  CA         4.2210    6.7730   29.5920 C.3    81  LEU81       0.1596
     46  C          5.1820    7.9410   29.5420 C.2    81  LEU81       0.2287
     47  O          5.6470    8.5500   28.5920 O.2    81  LEU81      -0.2864
     48  CB         3.0860    6.9510   28.5890 C.3    81  LEU81       0.0297
     49  CG         2.2250    5.7390   28.2420 C.3    81  LEU81       0.0022
     50  CD1        1.4890    5.9420   26.9200 C.3    81  LEU81       0.0001
     51  CD2        3.0220    4.4440   28.1550 C.3    81  LEU81       0.0001
     52  N         -2.3170   13.8450   34.1700 N.3   155  GLN155     -0.1245
     53  CA        -1.5690   12.8510   33.3870 C.3   155  GLN155      0.1566
     54  C         -0.4200   13.4010   32.5580 C.2   155  GLN155      0.2260
     55  O          0.3130   12.6520   31.9040 O.2   155  GLN155     -0.2867
     56  CB        -2.5570   12.1780   32.4350 C.3   155  GLN155      0.0367
     57  CG        -3.6990   11.4810   33.1570 C.3   155  GLN155      0.0905
     58  CD        -4.5850   10.7450   32.1640 C.2   155  GLN155      0.2608
     59  OE1       -4.3760    9.5600   31.8890 O.2   155  GLN155     -0.2717
     60  NE2       -5.5600   11.4660   31.6290 N.am  155  GLN155     -0.0878
     61  N         -6.2470   13.5000   14.0070 N.3   171  ASP171     -0.1225
     62  CA        -5.3600   13.0140   15.0720 C.3   171  ASP171      0.1805
     63  C         -4.4390   11.9220   14.5510 C.2   171  ASP171      0.2598
     64  O         -4.6400   11.3690   13.4680 O.2   171  ASP171     -0.2718
     65  CB        -6.1930   12.5040   16.2430 C.3   171  ASP171      0.1424
     66  CG        -5.5000   12.2530   17.5500 C.2   171  ASP171      0.3668
     67  OD1       -4.3340   12.6580   17.7020 O.co2 171  ASP171     -0.2456
     68  OD2       -6.1500   11.6420   18.4320 O.co2 171  ASP171     -0.2456
     69  N         -3.4210   11.6000   15.3630 N.am  172  SER172     -0.1938
     70  CA        -2.6880   10.3710   15.1050 C.3   172  SER172      0.2055
     71  C         -3.5090    9.2490   15.7450 C.2   172  SER172      0.2643
     72  O         -4.4270    9.5510   16.5080 O.2   172  SER172     -0.2714
     73  CB        -1.2820   10.4170   15.6910 C.3   172  SER172      0.2130
     74  OG        -1.3730   11.0140   16.9760 O.3   172  SER172     -0.2179
     75  N         -3.2050    7.9980   15.4580 N.am  173  CYS173     -0.1953
     76  CA        -3.9660    6.8560   15.9650 C.3   173  CYS173      0.1843
     77  C         -3.1020    5.6050   16.0290 C.2   173  CYS173      0.2625
     78  O         -1.8840    5.6380   15.8190 O.2   173  CYS173     -0.2714
     79  CB        -5.1950    6.6850   15.0760 C.3   173  CYS173      0.0997
     80  SG        -6.5500    5.6840   15.7280 S.3   173  CYS173     -0.0797
     81  N         -3.6830    4.4510   16.3220 N.am  174  GLN174     -0.1963
     82  CA        -2.9330    3.2000   16.4460 C.3   174  GLN174      0.1733
     83  C         -2.1150    2.9220   15.1930 C.2   174  GLN174      0.2616
     84  O         -2.6220    2.9650   14.0830 O.2   174  GLN174     -0.2715
     85  CB        -3.8850    2.0460   16.7290 C.3   174  GLN174      0.0408
     86  CG        -4.8560    2.3100   17.8990 C.3   174  GLN174      0.0908
     87  CD        -5.9620    1.2360   17.6850 C.2   174  GLN174      0.2608
     88  OE1       -5.6830    0.0570   17.8170 O.2   174  GLN174     -0.2717
     89  NE2       -7.0620    1.7420   17.1590 N.am  174  GLN174     -0.0878
     90  N         -0.8330    2.6510   15.4020 N.am  175  GLY175     -0.1955
     91  CA         0.0030    2.3110   14.2660 C.3   175  GLY175      0.1869
     92  C          0.9000    3.4710   13.8730 C.2   175  GLY175      0.2309
     93  O          1.8650    3.2860   13.1380 O.2   175  GLY175     -0.2863
     94  N          2.2300    5.2590   16.3840 N.3   177  SER177     -0.1217
     95  CA         3.0910    5.3350   17.5450 C.3   177  SER177      0.1889
     96  C          4.5700    5.3390   17.1590 C.2   177  SER177      0.2288
     97  O          4.9290    4.5090   16.3290 O.2   177  SER177     -0.2866
     98  CB         2.9200    4.1140   18.4590 C.3   177  SER177      0.2089
     99  OG         1.8690    4.2810   19.3620 O.3   177  SER177     -0.2183
    100  N          5.0150   10.4080   18.4680 N.3   191  VAL191     -0.1231
    101  CA         3.6440    9.9530   18.7420 C.3   191  VAL191      0.1692
    102  C          3.6160    8.9840   19.9120 C.2   191  VAL191      0.2593
    103  O          4.1920    7.9010   19.8780 O.2   191  VAL191     -0.2718
    104  CB         3.0400    9.2670   17.5070 C.3   191  VAL191      0.0266
    105  CG1        1.6310    8.7810   17.7960 C.3   191  VAL191      0.0020
    106  CG2        3.0610   10.1790   16.2850 C.3   191  VAL191      0.0020
    107  N          2.9270    9.3470   20.9970 N.am  192  SER192     -0.1938
    108  CA         3.0270    8.5340   22.2020 C.3   192  SER192      0.2055
    109  C          1.6740    7.9950   22.6140 C.2   192  SER192      0.2643
    110  O          1.4190    6.7830   22.5360 O.2   192  SER192     -0.2714
    111  CB         3.6650    9.3670   23.3100 C.3   192  SER192      0.2130
    112  OG         3.7710    8.6820   24.5440 O.3   192  SER192     -0.2179
    113  N          0.7720    8.8880   23.0410 N.am  193  TRP193     -0.1959
    114  CA        -0.5300    8.3610   23.4640 C.3   193  TRP193      0.1771
    115  C         -1.6910    9.3210   23.2770 C.2   193  TRP193      0.2620
    116  O         -1.5680   10.4280   22.7780 O.2   193  TRP193     -0.2715
    117  CB        -0.4420    7.9390   24.9280 C.3   193  TRP193      0.0590
    118  CG        -0.1170    8.9660   25.9520 C.ar  193  TRP193      0.0006
    119  CD1        1.1060    9.4350   26.3200 C.ar  193  TRP193      0.0946
    120  CD2       -1.0700    9.6670   26.7790 C.ar  193  TRP193      0.0152
    121  NE1        0.9780   10.3730   27.3060 N.ar  193  TRP193     -0.2442
    122  CE2       -0.3460   10.5380   27.6070 C.ar  193  TRP193      0.0810
    123  CE3       -2.4590    9.6320   26.8770 C.ar  193  TRP193      0.0012
    124  CZ2       -0.9850   11.3680   28.5300 C.ar  193  TRP193      0.0191
    125  CZ3       -3.0890   10.4530   27.7920 C.ar  193  TRP193      0.0001
    126  CH2       -2.3540   11.3140   28.6110 C.ar  193  TRP193      0.0015
    127  N         -2.8810    8.8830   23.6820 N.am  194  GLY194     -0.1940
    128  CA        -4.0670    9.7220   23.5640 C.3   194  GLY194      0.2014
    129  C         -5.2530    8.8870   24.0360 C.2   194  GLY194      0.2640
    130  O         -5.0390    7.8100   24.5750 O.2   194  GLY194     -0.2714
    131  N         -6.4420    9.4050   23.8310 N.am  195  SER195     -0.1935
    132  CA        -7.6860    8.8190   24.3260 C.3   195  SER195      0.2055
    133  C         -8.5430    8.5010   23.1260 C.2   195  SER195      0.2644
    134  O         -9.1880    9.3760   22.5470 O.2   195  SER195     -0.2714
    135  CB        -8.3680    9.7980   25.2770 C.3   195  SER195      0.2130
    136  OG        -9.4280    9.1860   25.9640 O.3   195  SER195     -0.2179
    137  N         -8.5280    7.2440   22.6970 N.am  196  GLY196     -0.1939
    138  CA        -9.1000    6.9780   21.3760 C.3   196  GLY196      0.2014
    139  C         -8.2530    7.7190   20.3350 C.2   196  GLY196      0.2639
    140  O         -7.0590    7.9220   20.5510 O.2   196  GLY196     -0.2714
    141  N         -8.8950    8.0870   19.2380 N.am  197  CYS197     -0.1967
    142  CA        -8.3330    8.8990   18.1870 C.3   197  CYS197      0.1712
    143  C         -9.3750    9.9060   17.7070 C.2   197  CYS197      0.2296
    144  O        -10.5300    9.5530   17.4940 O.2   197  CYS197     -0.2864
    145  CB        -7.8510    8.0510   16.9980 C.3   197  CYS197      0.0983
    146  SG        -6.9480    6.5610   17.5370 S.3   197  CYS197     -0.0798
    147  N        -10.0040   15.6040   23.2060 N.3   202  LYS202     -0.1245
    148  CA        -8.9690   14.6420   23.5840 C.3   202  LYS202      0.1561
    149  C         -7.8630   14.6350   22.5410 C.2   202  LYS202      0.2260
    150  O         -7.7660   13.7630   21.6770 O.2   202  LYS202     -0.2867
    151  CB        -9.5850   13.2510   23.7100 C.3   202  LYS202      0.0271
    152  CG       -10.7160   13.1730   24.7290 C.3   202  LYS202      0.0035
    153  CD       -10.1170   12.8500   26.0900 C.3   202  LYS202      0.0206
    154  CE       -10.7190   13.7210   27.1800 C.3   202  LYS202      0.1093
    155  NZ        -9.8660   13.7960   28.3990 N.3   202  LYS202     -0.1314
    156  N         -4.0120   14.5350   20.7710 N.3   204  GLY204     -0.1210
    157  CA        -2.8980   13.6140   20.9100 C.3   204  GLY204      0.1956
    158  C         -1.8510   14.1390   21.8680 C.2   204  GLY204      0.2612
    159  O         -1.6320   15.3450   21.9370 O.2   204  GLY204     -0.2717
    160  N         -1.1640   13.2410   22.5590 N.am  205  VAL205     -0.1965
    161  CA        -0.0280   13.5330   23.4360 C.3   205  VAL205      0.1727
    162  C          1.2480   12.9160   22.8580 C.2   205  VAL205      0.2616
    163  O          1.2990   11.7950   22.3250 O.2   205  VAL205     -0.2715
    164  CB        -0.2510   13.0440   24.8660 C.3   205  VAL205      0.0290
    165  CG1        0.8340   13.5630   25.7920 C.3   205  VAL205      0.0023
    166  CG2       -1.6160   13.4770   25.3660 C.3   205  VAL205      0.0023
    167  N          2.2950   13.7300   22.9260 N.am  206  TYR206     -0.1974
    168  CA         3.5620   13.5030   22.2700 C.3   206  TYR206      0.1639
    169  C          4.7330   13.6960   23.2300 C.2   206  TYR206      0.2290
    170  O          4.7040   14.5880   24.0700 O.2   206  TYR206     -0.2864
    171  CB         3.7290   14.4740   21.0780 C.3   206  TYR206      0.0560
    172  CG         2.5590   14.2570   20.1450 C.ar  206  TYR206     -0.0198
    173  CD1        1.3810   14.9710   20.2430 C.ar  206  TYR206     -0.0009
    174  CD2        2.6660   13.2900   19.1680 C.ar  206  TYR206     -0.0009
    175  CE1        0.3220   14.7500   19.3800 C.ar  206  TYR206      0.0417
    176  CE2        1.6090   13.0700   18.3210 C.ar  206  TYR206      0.0417
    177  CZ         0.4430   13.7840   18.4110 C.ar  206  TYR206      0.1957
    178  OH        -0.5650   13.5010   17.5250 O.3   206  TYR206     -0.2866
@<TRIPOS>BOND
     1    93    92    2
     2    64    63    2
     3    92    91    1
     4    61    62    1
     5    84    83    2
     6    91    90    1
     7    63    62    1
     8    63    69   am
     9    62    65    1
    10    79    80    1
    11    79    76    1
    12    70    69    1
    13    70    73    1
    14    70    71    1
    15    83    90   am
    16    83    82    1
    17    75    71   am
    18    75    76    1
    19    73    74    1
    20    80   146    1
    21    71    72    2
    22    78    77    2
    23    76    77    1
    24    77    81   am
    25    65    66    1
    26   106   104    1
    27    81    82    1
    28    97    96    2
    29    94    95    1
    30    82    85    1
    31    85    86    1
    32   145   146    1
    33   145   142    1
    34    89    87   am
    35    96    95    1
    36   144   143    2
    37   104   105    1
    38   104   101    1
    39   178   177    1
    40    95    98    1
    41    66    67   ar
    42    66    68   ar
    43    87    88    2
    44    87    86    1
    45   143   142    1
    46   142   141    1
    47   176   177   ar
    48   176   174   ar
    49   177   175   ar
    50    98    99    1
    51   100   101    1
    52   101   102    1
    53   174   172   ar
    54   141   139   am
    55   175   173   ar
    56   103   102    2
    57   102   107   am
    58   172   173   ar
    59   172   171    1
    60   139   140    2
    61   139   138    1
    62   156   157    1
    63   157   158    1
    64   107   108    1
    65   171   168    1
    66   138   137    1
    67    10     9   ar
    68    10     8   ar
    69   150   149    2
    70   158   159    2
    71   158   160   am
    72     9     7   ar
    73   108   109    1
    74   108   111    1
    75     8     6   ar
    76   168   167    1
    77   168   169    1
    78   163   162    2
    79   110   109    2
    80   149   148    1
    81   134   133    2
    82   160   161    1
    83   109   113   am
    84     4     3    2
    85   137   133   am
    86     3     2    1
    87   116   115    2
    88   162   167   am
    89   162   161    1
    90   113   114    1
    91   133   132    1
    92     7     6   ar
    93   147   148    1
    94   169   170    2
    95     6     5    1
    96   115   114    1
    97   115   127   am
    98   111   112    1
    99   161   164    1
   100   114   117    1
   101   128   127    1
   102   128   129    1
   103   148   151    1
   104   151   152    1
   105   131   129   am
   106   131   132    1
   107     1     2    1
   108   129   130    2
   109     2     5    1
   110   132   135    1
   111   152   153    1
   112   164   166    1
   113   164   165    1
   114   117   118    1
   115   135   136    1
   116   118   119   ar
   117   118   120   ar
   118   153   154    1
   119   119   121   ar
   120   120   123   ar
   121   120   122   ar
   122   123   125   ar
   123    50    49    1
   124   154   155    1
   125   121   122   ar
   126    22    21    1
   127   122   124   ar
   128   125   126   ar
   129    21    19   ar
   130    21    20   ar
   131    51    49    1
   132    19    17   ar
   133    49    48    1
   134    20    18   ar
   135   124   126   ar
   136    48    45    1
   137    47    46    2
   138    17    16   ar
   139    18    16   ar
   140    16    15    1
   141    46    45    1
   142    45    44    1
   143    15    12    1
   144    26    25    2
   145    44    39   am
   146    12    11    1
   147    12    13    1
   148    40    39    2
   149    24    27    1
   150    24    25    1
   151    24    23    1
   152    27    28    1
   153    39    38    1
   154    60    58   am
   155    25    29   am
   156    59    58    2
   157    55    54    2
   158    13    14    2
   159    58    57    1
   160    56    57    1
   161    56    53    1
   162    54    53    1
   163    32    31    2
   164    29    30    1
   165    38    37    1
   166    38    41    1
   167    31    37   am
   168    31    30    1
   169    53    52    1
   170    30    33    1
   171    41    42    1
   172    41    43    1
   173    33    34    1
   174    35    34    2
   175    34    36   am
