@<TRIPOS>MOLECULE
tmp/1y3xA00.pdb
 185 184 0 0 0
SMALL
GASTEIGER

@<TRIPOS>ATOM
      1  N          7.3130    2.5460   23.9910 N.3    40  HIS40      -0.1241
      2  CA         6.2700    1.5360   24.0310 C.3    40  HIS40       0.1621
      3  C          6.2070    0.7040   22.7460 C.2    40  HIS40       0.2264
      4  O          5.4360   -0.2500   22.6100 O.2    40  HIS40      -0.2867
      5  CB         4.9120    2.1470   24.3040 C.3    40  HIS40       0.0745
      6  CG         4.2110    2.9040   23.2280 C.ar   40  HIS40       0.0817
      7  ND1        4.2450    4.2870   23.1320 N.ar   40  HIS40      -0.2268
      8  CD2        3.3820    2.5200   22.2200 C.ar   40  HIS40       0.1154
      9  CE1        3.5010    4.6970   22.1060 C.ar   40  HIS40       0.1986
     10  NE2        2.9520    3.6390   21.5160 N.ar   40  HIS40      -0.2212
     11  N         11.8710    5.1440   31.5250 N.3    76  TYR76      -0.1241
     12  CA        10.5670    4.9340   30.9250 C.3    76  TYR76       0.1605
     13  C          9.6320    4.2770   31.9330 C.2    76  TYR76       0.2264
     14  O         10.0210    3.2740   32.5400 O.2    76  TYR76      -0.2867
     15  CB        10.6920    4.0160   29.7140 C.3    76  TYR76       0.0534
     16  CG         9.3860    3.5430   29.1150 C.ar   76  TYR76      -0.0201
     17  CD1        8.4270    4.4690   28.7050 C.ar   76  TYR76      -0.0009
     18  CD2        9.1200    2.1790   28.9740 C.ar   76  TYR76      -0.0009
     19  CE1        7.2150    4.0460   28.1500 C.ar   76  TYR76       0.0417
     20  CE2        7.9230    1.7470   28.4330 C.ar   76  TYR76       0.0417
     21  CZ         6.9860    2.6940   28.0310 C.ar   76  TYR76       0.1957
     22  OH         5.7940    2.2670   27.4860 O.3    76  TYR76      -0.2866
     23  N          5.9590    2.5030   32.0700 N.3    78  SER78      -0.1202
     24  CA         4.9280    1.8700   31.2780 C.3    78  SER78       0.2020
     25  C          3.5350    2.2740   31.7470 C.2    78  SER78       0.2619
     26  O          2.5730    2.1950   30.9710 O.2    78  SER78      -0.2717
     27  CB         5.0170    0.3350   31.3440 C.3    78  SER78       0.2103
     28  OG         5.0010   -0.1520   32.6670 O.3    78  SER78      -0.2182
     29  N          3.4510    2.6960   33.0010 N.am   79  ASN79      -0.1960
     30  CA         2.1460    3.0620   33.5330 C.3    79  ASN79       0.1819
     31  C          1.7490    4.4800   33.1610 C.2    79  ASN79       0.2622
     32  O          0.5930    4.7470   32.8700 O.2    79  ASN79      -0.2715
     33  CB         2.1170    2.9680   35.0610 C.3    79  ASN79       0.1195
     34  CG         2.6950    1.6920   35.6430 C.2    79  ASN79       0.2630
     35  OD1        2.2800    0.5900   35.2630 O.2    79  ASN79      -0.2716
     36  ND2        3.6510    1.8360   36.5660 N.am   79  ASN79      -0.0877
     37  N          2.7030    5.3870   33.1660 N.am   80  THR80      -0.1937
     38  CA         2.3980    6.7810   32.9100 C.3    80  THR80       0.2028
     39  C          2.8320    7.2590   31.5230 C.2    80  THR80       0.2642
     40  O          2.4390    8.3560   31.1250 O.2    80  THR80      -0.2714
     41  CB         3.0820    7.6120   33.9910 C.3    80  THR80       0.1808
     42  OG1        4.4950    7.3840   34.0200 O.3    80  THR80      -0.2208
     43  CG2        2.6120    7.1580   35.3780 C.3    80  THR80       0.0379
     44  N          3.6260    6.4600   30.8290 N.am   81  LEU81      -0.1977
     45  CA         4.2400    6.7920   29.5480 C.3    81  LEU81       0.1596
     46  C          5.1650    7.9790   29.5540 C.2    81  LEU81       0.2287
     47  O          5.6250    8.5830   28.5970 O.2    81  LEU81      -0.2864
     48  CB         3.1360    6.9880   28.5010 C.3    81  LEU81       0.0297
     49  CG         2.3620    5.7530   28.0850 C.3    81  LEU81       0.0022
     50  CD1        1.9250    5.8780   26.6400 C.3    81  LEU81       0.0001
     51  CD2        3.1160    4.4380   28.1670 C.3    81  LEU81       0.0001
     52  N         -2.2560   13.8630   34.2300 N.3   155  GLN155     -0.1245
     53  CA        -1.5440   12.8520   33.4280 C.3   155  GLN155      0.1566
     54  C         -0.4220   13.3950   32.5620 C.2   155  GLN155      0.2260
     55  O          0.2840   12.6680   31.8710 O.2   155  GLN155     -0.2867
     56  CB        -2.5790   12.1920   32.5250 C.3   155  GLN155      0.0367
     57  CG        -3.6870   11.4600   33.2420 C.3   155  GLN155      0.0905
     58  CD        -4.6960   11.0170   32.1900 C.2   155  GLN155      0.2608
     59  OE1       -5.6130   11.7700   31.8660 O.2   155  GLN155     -0.2717
     60  NE2       -4.4980    9.8150   31.6720 N.am  155  GLN155     -0.0878
     61  N         -6.2360   13.5280   13.9990 N.3   171  ASP171     -0.1225
     62  CA        -5.3800   13.0310   15.0800 C.3   171  ASP171      0.1805
     63  C         -4.4370   11.9530   14.5600 C.2   171  ASP171      0.2598
     64  O         -4.6710   11.3950   13.4900 O.2   171  ASP171     -0.2718
     65  CB        -6.2220   12.4350   16.1880 C.3   171  ASP171      0.1424
     66  CG        -5.5860   12.2530   17.5370 C.2   171  ASP171      0.3668
     67  OD1       -4.4030   12.6330   17.7360 O.co2 171  ASP171     -0.2456
     68  OD2       -6.2890   11.6870   18.4130 O.co2 171  ASP171     -0.2456
     69  N         -3.4200   11.5990   15.3440 N.am  172  SER172     -0.1938
     70  CA        -2.7110   10.3490   15.0810 C.3   172  SER172      0.2055
     71  C         -3.5290    9.2500   15.7310 C.2   172  SER172      0.2643
     72  O         -4.4490    9.5200   16.5230 O.2   172  SER172     -0.2714
     73  CB        -1.2750   10.3950   15.6010 C.3   172  SER172      0.2130
     74  OG        -1.2210   10.9440   16.9020 O.3   172  SER172     -0.2179
     75  N         -3.1990    7.9990   15.4240 N.am  173  CYS173     -0.1953
     76  CA        -3.9470    6.8530   15.9530 C.3   173  CYS173      0.1843
     77  C         -3.0630    5.6210   16.0340 C.2   173  CYS173      0.2625
     78  O         -1.8670    5.6660   15.8110 O.2   173  CYS173     -0.2714
     79  CB        -5.1490    6.6260   15.0580 C.3   173  CYS173      0.0997
     80  SG        -6.5410    5.7000   15.7220 S.3   173  CYS173     -0.0797
     81  N         -3.6800    4.5000   16.3730 N.am  174  GLN174     -0.1963
     82  CA        -2.9680    3.2400   16.4980 C.3   174  GLN174      0.1733
     83  C         -2.2170    2.9460   15.1910 C.2   174  GLN174      0.2616
     84  O         -2.7830    3.0320   14.1070 O.2   174  GLN174     -0.2715
     85  CB        -3.9280    2.1070   16.8290 C.3   174  GLN174      0.0408
     86  CG        -5.0810    1.9700   15.8570 C.3   174  GLN174      0.0908
     87  CD        -6.3760    1.5150   16.5090 C.2   174  GLN174      0.2608
     88  OE1       -7.3660    2.2510   16.5810 O.2   174  GLN174     -0.2717
     89  NE2       -6.3710    0.2780   16.9890 N.am  174  GLN174     -0.0878
     90  N         -0.9600    2.6220   15.3680 N.am  175  GLY175     -0.1955
     91  CA        -0.0310    2.3360   14.3020 C.3   175  GLY175      0.1869
     92  C          0.8600    3.5060   13.9360 C.2   175  GLY175      0.2309
     93  O          1.8540    3.3070   13.2250 O.2   175  GLY175     -0.2863
     94  N          2.2300    5.3280   16.4000 N.3   177  SER177     -0.1217
     95  CA         3.0990    5.3920   17.5520 C.3   177  SER177      0.1889
     96  C          4.5640    5.3690   17.1430 C.2   177  SER177      0.2288
     97  O          4.9330    4.5480   16.2890 O.2   177  SER177     -0.2866
     98  CB         2.9810    4.1470   18.4380 C.3   177  SER177      0.2089
     99  OG         1.7720    4.1410   19.1600 O.3   177  SER177     -0.2183
    100  N          5.0780   10.3790   18.4150 N.3   191  VAL191     -0.1231
    101  CA         3.7090    9.9590   18.7360 C.3   191  VAL191      0.1692
    102  C          3.6720    8.9920   19.9090 C.2   191  VAL191      0.2593
    103  O          4.2460    7.9000   19.8450 O.2   191  VAL191     -0.2718
    104  CB         3.1230    9.2870   17.4970 C.3   191  VAL191      0.0266
    105  CG1        1.7160    8.7930   17.7790 C.3   191  VAL191      0.0020
    106  CG2        3.1530   10.2000   16.2620 C.3   191  VAL191      0.0020
    107  N          3.0230    9.3850   21.0090 N.am  192  SER192     -0.1938
    108  CA         3.0550    8.5870   22.2260 C.3   192  SER192      0.2055
    109  C          1.7160    8.0330   22.6100 C.2   192  SER192      0.2643
    110  O          1.4970    6.8090   22.6060 O.2   192  SER192     -0.2714
    111  CB         3.6380    9.4500   23.3550 C.3   192  SER192      0.2130
    112  OG         3.7690    8.7350   24.5490 O.3   192  SER192     -0.2179
    113  N          0.7510    8.8940   22.9530 N.am  193  TRP193     -0.1959
    114  CA        -0.5370    8.3490   23.4130 C.3   193  TRP193      0.1771
    115  C         -1.7110    9.3110   23.2720 C.2   193  TRP193      0.2620
    116  O         -1.5350   10.4300   22.8460 O.2   193  TRP193     -0.2715
    117  CB        -0.4870    7.9470   24.8720 C.3   193  TRP193      0.0590
    118  CG        -0.1860    8.9720   25.9160 C.ar  193  TRP193      0.0006
    119  CD1        1.0440    9.4350   26.2850 C.ar  193  TRP193      0.0946
    120  CD2       -1.1110    9.6890   26.7640 C.ar  193  TRP193      0.0152
    121  NE1        0.9500   10.3800   27.2830 N.ar  193  TRP193     -0.2442
    122  CE2       -0.3720   10.5460   27.5920 C.ar  193  TRP193      0.0810
    123  CE3       -2.5030    9.6490   26.8600 C.ar  193  TRP193      0.0012
    124  CZ2       -0.9670   11.3940   28.5460 C.ar  193  TRP193      0.0191
    125  CZ3       -3.1060   10.4810   27.7980 C.ar  193  TRP193      0.0001
    126  CH2       -2.3320   11.3180   28.5980 C.ar  193  TRP193      0.0015
    127  N         -2.9080    8.8260   23.6200 N.am  194  GLY194     -0.1940
    128  CA        -4.0690    9.7120   23.5620 C.3   194  GLY194      0.2014
    129  C         -5.2710    8.9050   24.0660 C.2   194  GLY194      0.2640
    130  O         -5.0710    7.8160   24.5900 O.2   194  GLY194     -0.2714
    131  N         -6.4590    9.4410   23.9050 N.am  195  SER195     -0.1935
    132  CA        -7.6820    8.7680   24.3800 C.3   195  SER195      0.2055
    133  C         -8.5350    8.4820   23.1710 C.2   195  SER195      0.2644
    134  O         -9.1120    9.3860   22.5710 O.2   195  SER195     -0.2714
    135  CB        -8.4130    9.6440   25.3770 C.3   195  SER195      0.2130
    136  OG        -9.5130    8.9850   25.9400 O.3   195  SER195     -0.2179
    137  N         -8.5710    7.2330   22.7440 N.am  196  GLY196     -0.1939
    138  CA        -9.1410    6.9990   21.4260 C.3   196  GLY196      0.2014
    139  C         -8.3210    7.7190   20.3620 C.2   196  GLY196      0.2639
    140  O         -7.1510    8.0350   20.5460 O.2   196  GLY196     -0.2714
    141  N         -8.9380    8.0130   19.2310 N.am  197  CYS197     -0.1967
    142  CA        -8.3770    8.8650   18.2040 C.3   197  CYS197      0.1712
    143  C         -9.4450    9.8430   17.7100 C.2   197  CYS197      0.2296
    144  O        -10.5870    9.4680   17.4540 O.2   197  CYS197     -0.2864
    145  CB        -7.8650    8.0720   17.0010 C.3   197  CYS197      0.0983
    146  SG        -6.9510    6.5950   17.5190 S.3   197  CYS197     -0.0798
    147  N         -9.9530   15.6970   23.2190 N.3   202  LYS202     -0.1231
    148  CA        -8.9240   14.7490   23.6260 C.3   202  LYS202      0.1678
    149  C         -7.8300   14.7130   22.5630 C.2   202  LYS202      0.2434
    150  O         -7.8030   13.7950   21.7380 O.2   202  LYS202     -0.2733
    151  CB        -9.5160   13.3560   23.8180 C.3   202  LYS202      0.0284
    152  CG       -10.9550   13.3180   24.3060 C.3   202  LYS202      0.0035
    153  CD       -11.2290   12.1180   25.1910 C.3   202  LYS202      0.0206
    154  CE       -12.2880   11.1940   24.6090 C.3   202  LYS202      0.1093
    155  NZ       -12.5050    9.9740   25.4370 N.3   202  LYS202     -0.1314
    156  N         -6.9600   15.7000   22.5870 N.am  203  PRO203     -0.2718
    157  CA        -5.8910   15.7660   21.5700 C.3   203  PRO203      0.1535
    158  C         -4.8350   14.6880   21.7770 C.2   203  PRO203      0.2599
    159  O         -4.7540   14.0090   22.7970 O.2   203  PRO203     -0.2715
    160  CB        -5.2900   17.1450   21.8180 C.3   203  PRO203      0.0310
    161  CG        -5.5640   17.4470   23.2530 C.3   203  PRO203      0.0237
    162  CD        -6.9060   16.8230   23.5260 C.3   203  PRO203      0.0939
    163  N         -3.9880   14.5390   20.7570 N.am  204  GLY204     -0.1941
    164  CA        -2.8970   13.5940   20.8940 C.3   204  GLY204      0.2014
    165  C         -1.8390   14.1090   21.8460 C.2   204  GLY204      0.2639
    166  O         -1.6420   15.3170   21.9670 O.2   204  GLY204     -0.2714
    167  N         -1.1210   13.2180   22.5190 N.am  205  VAL205     -0.1963
    168  CA        -0.0120   13.5050   23.4090 C.3   205  VAL205      0.1727
    169  C          1.2850   12.9240   22.8280 C.2   205  VAL205      0.2616
    170  O          1.3100   11.8030   22.2750 O.2   205  VAL205     -0.2715
    171  CB        -0.2490   12.9750   24.8290 C.3   205  VAL205      0.0290
    172  CG1        0.8050   13.4630   25.7980 C.3   205  VAL205      0.0023
    173  CG2       -1.6340   13.3990   25.3130 C.3   205  VAL205      0.0023
    174  N          2.3210   13.7460   22.9200 N.am  206  TYR206     -0.1974
    175  CA         3.5930   13.5180   22.2470 C.3   206  TYR206      0.1639
    176  C          4.7660   13.6870   23.1940 C.2   206  TYR206      0.2290
    177  O          4.7590   14.5570   24.0640 O.2   206  TYR206     -0.2864
    178  CB         3.7170   14.5000   21.0560 C.3   206  TYR206      0.0560
    179  CG         2.5630   14.2660   20.0780 C.ar  206  TYR206     -0.0198
    180  CD1        1.3450   14.9430   20.2310 C.ar  206  TYR206     -0.0009
    181  CD2        2.7030   13.3650   19.0490 C.ar  206  TYR206     -0.0009
    182  CE1        0.2970   14.7230   19.3450 C.ar  206  TYR206      0.0417
    183  CE2        1.6470   13.1560   18.1810 C.ar  206  TYR206      0.0417
    184  CZ         0.4530   13.8200   18.3180 C.ar  206  TYR206      0.1957
    185  OH        -0.5400   13.5350   17.4000 O.3   206  TYR206     -0.2866
@<TRIPOS>BOND
     1    93    92    2
     2    64    63    2
     3    92    91    1
     4    61    62    1
     5    84    83    2
     6    91    90    1
     7    63    62    1
     8    63    69   am
     9    79    80    1
    10    79    76    1
    11    62    65    1
    12    70    69    1
    13    70    73    1
    14    70    71    1
    15    83    90   am
    16    83    82    1
    17    75    71   am
    18    75    76    1
    19    73    74    1
    20    80   146    1
    21    71    72    2
    22    78    77    2
    23    86    87    1
    24    86    85    1
    25    76    77    1
    26    77    81   am
    27    65    66    1
    28   106   104    1
    29    97    96    2
    30    81    82    1
    31    94    95    1
    32    82    85    1
    33    87    88    2
    34    87    89   am
    35   145   146    1
    36   145   142    1
    37    96    95    1
    38   185   184    1
    39   144   143    2
    40   104   105    1
    41   104   101    1
    42    66    67   ar
    43    66    68   ar
    44    95    98    1
    45   143   142    1
    46   183   184   ar
    47   183   181   ar
    48   142   141    1
    49   184   182   ar
    50   100   101    1
    51    98    99    1
    52   101   102    1
    53   181   179   ar
    54   141   139   am
    55   182   180   ar
    56   103   102    2
    57   102   107   am
    58   179   180   ar
    59   179   178    1
    60   139   140    2
    61   139   138    1
    62   163   164    1
    63   163   158   am
    64   164   165    1
    65   107   108    1
    66   178   175    1
    67   138   137    1
    68    10     9   ar
    69    10     8   ar
    70   157   158    1
    71   157   160    1
    72   157   156    1
    73   150   149    2
    74   158   159    2
    75   160   161    1
    76   165   166    2
    77   165   167   am
    78     9     7   ar
    79     8     6   ar
    80   108   109    1
    81   108   111    1
    82   175   174    1
    83   175   176    1
    84   170   169    2
    85   167   168    1
    86   149   156   am
    87   149   148    1
    88   134   133    2
    89   156   162    1
    90   110   109    2
    91     4     3    2
    92   109   113   am
    93   137   133   am
    94     3     2    1
    95   169   174   am
    96   169   168    1
    97   116   115    2
    98   113   114    1
    99     7     6   ar
   100   133   132    1
   101   176   177    2
   102   147   148    1
   103     6     5    1
   104   161   162    1
   105   115   114    1
   106   115   127   am
   107   111   112    1
   108   168   171    1
   109   114   117    1
   110   128   127    1
   111   128   129    1
   112   148   151    1
   113   151   152    1
   114   131   129   am
   115   131   132    1
   116     1     2    1
   117     2     5    1
   118   129   130    2
   119   152   153    1
   120   132   135    1
   121   154   153    1
   122   154   155    1
   123   171   173    1
   124   171   172    1
   125   117   118    1
   126   135   136    1
   127   118   119   ar
   128   118   120   ar
   129   119   121   ar
   130    50    49    1
   131   120   123   ar
   132   120   122   ar
   133   123   125   ar
   134   121   122   ar
   135    22    21    1
   136   122   124   ar
   137   125   126   ar
   138    21    19   ar
   139    21    20   ar
   140    49    51    1
   141    49    48    1
   142    19    17   ar
   143    20    18   ar
   144    48    45    1
   145   124   126   ar
   146    47    46    2
   147    17    16   ar
   148    18    16   ar
   149    16    15    1
   150    45    46    1
   151    45    44    1
   152    15    12    1
   153    44    39   am
   154    12    11    1
   155    12    13    1
   156    26    25    2
   157    40    39    2
   158    24    27    1
   159    24    25    1
   160    24    23    1
   161    27    28    1
   162    39    38    1
   163    60    58   am
   164    25    29   am
   165    59    58    2
   166    55    54    2
   167    13    14    2
   168    58    57    1
   169    56    57    1
   170    56    53    1
   171    54    53    1
   172    32    31    2
   173    38    37    1
   174    38    41    1
   175    29    30    1
   176    31    37   am
   177    31    30    1
   178    53    52    1
   179    30    33    1
   180    41    42    1
   181    41    43    1
   182    33    34    1
   183    35    34    2
   184    34    36   am
