@<TRIPOS>MOLECULE
tmp/1y4cA00.pdb
 188 184 0 0 0
SMALL
GASTEIGER

@<TRIPOS>ATOM
      1  N          0.0650   58.8450   95.1500 N.3     9  ASN9       -0.1240
      2  CA         1.4180   59.2220   95.5460 C.3     9  ASN9        0.1653
      3  C          1.5700   59.6120   97.0150 C.2     9  ASN9        0.2266
      4  O          0.6580   60.1640   97.6310 O.2     9  ASN9       -0.2867
      5  CB         1.9420   60.3440   94.6440 C.3     9  ASN9        0.1155
      6  CG         3.4610   60.3370   94.5400 C.2     9  ASN9        0.2627
      7  OD1        4.0760   59.2800   94.3500 O.2     9  ASN9       -0.2716
      8  ND2        4.0690   61.5080   94.6520 N.am    9  ASN9       -0.0877
      9  N          2.9650   61.9910   98.4600 N.3    11  ASP11      -0.1225
     10  CA         2.8850   63.3970   98.8370 C.3    11  ASP11       0.1805
     11  C          1.4420   63.9150   98.9230 C.2    11  ASP11       0.2597
     12  O          1.2110   65.0540   99.3200 O.2    11  ASP11      -0.2718
     13  CB         3.7300   64.2660   97.8800 C.3    11  ASP11       0.1424
     14  CG         3.3950   64.0490   96.4000 C.2    11  ASP11       0.3668
     15  OD1        2.5280   63.2110   96.0720 O.co2  11  ASP11      -0.2456
     16  OD2        4.0200   64.7310   95.5530 O.co2  11  ASP11      -0.2456
     17  N          0.4760   63.0620   98.5890 N.am   12  LYS12      -0.1979
     18  CA        -0.9370   63.4350   98.6240 C.3    12  LYS12       0.1596
     19  C         -1.6080   63.0270   99.9390 C.2    12  LYS12       0.2287
     20  O         -1.0000   62.3590  100.7740 O.2    12  LYS12      -0.2864
     21  CB        -1.6980   62.7780   97.4660 C.3    12  LYS12       0.0298
     22  CG        -1.0530   62.9010   96.0960 C.3    12  LYS12       0.0038
     23  CD        -0.9470   64.3390   95.6170 C.3    12  LYS12       0.0206
     24  CE        -0.3250   64.3590   94.2230 C.3    12  LYS12       0.1093
     25  NZ         0.1710   65.6960   93.8550 N.3    12  LYS12      -0.1314
     26  N          4.2730   55.9900   89.3770 N.3    41  GLU41      -0.1245
     27  CA         4.0270   56.2450   87.9590 C.3    41  GLU41       0.1567
     28  C          4.6310   55.1720   87.0450 C.2    41  GLU41       0.2260
     29  O          4.1730   54.9880   85.9110 O.2    41  GLU41      -0.2867
     30  CB         4.5550   57.6320   87.5540 C.3    41  GLU41       0.0388
     31  CG         6.0730   57.7340   87.4440 C.3    41  GLU41       0.1160
     32  CD         6.7560   58.0330   88.7720 C.2    41  GLU41       0.3649
     33  OE1        6.2260   57.6410   89.8300 O.co2  41  GLU41      -0.2457
     34  OE2        7.8410   58.6540   88.7470 O.co2  41  GLU41      -0.2457
     35  N         -2.9250   59.8890   89.6870 N.3    59  TRP59      -0.1227
     36  CA        -1.7050   60.5410   89.2270 C.3    59  TRP59       0.1737
     37  C         -2.1190   61.7010   88.3450 C.2    59  TRP59       0.2595
     38  O         -3.2680   61.7590   87.9160 O.2    59  TRP59      -0.2718
     39  CB        -0.8180   59.5840   88.4210 C.3    59  TRP59       0.0564
     40  CG         0.5830   60.1280   88.2460 C.ar   59  TRP59       0.0003
     41  CD1        1.0390   60.9300   87.2410 C.ar   59  TRP59       0.0946
     42  CD2        1.6530   60.0030   89.1790 C.ar   59  TRP59       0.0152
     43  NE1        2.3330   61.3250   87.4950 N.ar   59  TRP59      -0.2442
     44  CE2        2.7320   60.7740   88.6770 C.ar   59  TRP59       0.0810
     45  CE3        1.7970   59.3270   90.3940 C.ar   59  TRP59       0.0012
     46  CZ2        3.9460   60.8760   89.3560 C.ar   59  TRP59       0.0191
     47  CZ3        3.0020   59.4290   91.0700 C.ar   59  TRP59       0.0001
     48  CH2        4.0660   60.2060   90.5480 C.ar   59  TRP59       0.0015
     49  N         -1.1950   62.6270   88.0860 N.am   60  ALA60      -0.1980
     50  CA        -1.5080   63.7380   87.2050 C.3    60  ALA60       0.1597
     51  C         -1.8460   63.0940   85.8620 C.2    60  ALA60       0.2287
     52  O         -1.3350   62.0270   85.5350 O.2    60  ALA60      -0.2864
     53  CB        -0.2970   64.6900   87.0660 C.3    60  ALA60       0.0319
     54  N         -0.9450   63.5630   82.8130 N.3    62  ASP62      -0.1225
     55  CA         0.0580   63.3620   81.7700 C.3    62  ASP62       0.1805
     56  C          0.4760   61.9110   81.5360 C.2    62  ASP62       0.2597
     57  O          0.8270   61.5440   80.4240 O.2    62  ASP62      -0.2718
     58  CB         1.2970   64.2480   82.0390 C.3    62  ASP62       0.1424
     59  CG         2.0780   63.8300   83.2800 C.2    62  ASP62       0.3668
     60  OD1        1.5060   63.8100   84.3850 O.co2  62  ASP62      -0.2456
     61  OD2        3.2850   63.5360   83.1450 O.co2  62  ASP62      -0.2456
     62  N          0.4230   61.0810   82.5760 N.am   63  ARG63      -0.1979
     63  CA         0.8010   59.6710   82.4420 C.3    63  ARG63       0.1597
     64  C         -0.3160   58.7870   81.8820 C.2    63  ARG63       0.2287
     65  O         -0.0560   57.6940   81.3720 O.2    63  ARG63      -0.2864
     66  CB         1.2010   59.1050   83.8040 C.3    63  ARG63       0.0334
     67  CG         2.4750   59.6830   84.3870 C.3    63  ARG63       0.0492
     68  CD         3.6940   58.8730   83.9590 C.3    63  ARG63       0.2205
     69  NE         4.9460   59.5680   84.2530 N.pl3  63  ARG63      -0.0865
     70  CZ         6.1500   59.1300   83.8910 C.cat  63  ARG63       0.5346
     71  NH1        6.2790   57.9870   83.2310 N.pl3  63  ARG63       0.1354
     72  NH2        7.2260   59.8670   84.1400 N.pl3  63  ARG63       0.1354
     73  N         -3.3730   71.1210   89.6230 N.3   108  GLU108     -0.1245
     74  CA        -2.1580   71.4180   90.3740 C.3   108  GLU108      0.1567
     75  C         -1.1670   72.2560   89.5840 C.2   108  GLU108      0.2260
     76  O         -0.9190   71.9980   88.4070 O.2   108  GLU108     -0.2867
     77  CB        -1.4290   70.1230   90.7700 C.3   108  GLU108      0.0388
     78  CG        -2.3040   68.9120   91.0710 C.3   108  GLU108      0.1160
     79  CD        -1.4830   67.6630   91.3870 C.2   108  GLU108      0.3649
     80  OE1       -0.5240   67.3600   90.6440 O.co2 108  GLU108     -0.2457
     81  OE2       -1.8010   66.9750   92.3770 O.co2 108  GLU108     -0.2457
     82  N         13.4380   71.0420   94.8150 N.3   147  ASN147     -0.1240
     83  CA        13.8370   69.7690   94.2380 C.3   147  ASN147      0.1653
     84  C         14.4640   69.8670   92.8500 C.2   147  ASN147      0.2266
     85  O         13.7860   70.1750   91.8750 O.2   147  ASN147     -0.2867
     86  CB        12.6290   68.8250   94.1990 C.3   147  ASN147      0.1155
     87  CG        13.0090   67.4080   93.8250 C.2   147  ASN147      0.2627
     88  OD1       14.1840   67.0970   93.6550 O.2   147  ASN147     -0.2716
     89  ND2       12.0120   66.5370   93.7040 N.am  147  ASN147     -0.0877
     90  N         13.7350   66.2180   90.2260 N.3   150  GLU150     -0.1231
     91  CA        12.5670   65.9730   89.3740 C.3   150  GLU150      0.1684
     92  C         12.4270   67.1730   88.4460 C.2   150  GLU150      0.2434
     93  O         12.2520   68.3080   88.9050 O.2   150  GLU150     -0.2733
     94  CB        11.2940   65.8150   90.2250 C.3   150  GLU150      0.0402
     95  CG        11.1360   64.4490   90.8900 C.3   150  GLU150      0.1161
     96  CD        11.0450   63.3040   89.8850 C.2   150  GLU150      0.3649
     97  OE1       10.3620   63.4560   88.8470 O.co2 150  GLU150     -0.2457
     98  OE2       11.6500   62.2410   90.1380 O.co2 150  GLU150     -0.2457
     99  N         12.4890   66.9430   87.1260 N.am  151  PRO151     -0.2718
    100  CA        12.3750   68.0420   86.1640 C.3   151  PRO151      0.1535
    101  C         11.0940   68.8660   86.2860 C.2   151  PRO151      0.2599
    102  O         11.0230   69.9870   85.7860 O.2   151  PRO151     -0.2715
    103  CB        12.5140   67.3360   84.8090 C.3   151  PRO151      0.0310
    104  CG        11.9490   65.9640   85.0870 C.3   151  PRO151      0.0237
    105  CD        12.5460   65.6410   86.4360 C.3   151  PRO151      0.0939
    106  N         10.0780   68.3110   86.9410 N.am  152  TYR152     -0.1960
    107  CA         8.8170   69.0260   87.1340 C.3   152  TYR152      0.1771
    108  C          9.0630   70.3840   87.8050 C.2   152  TYR152      0.2619
    109  O          8.4110   71.3810   87.4870 O.2   152  TYR152     -0.2715
    110  CB         7.8990   68.1890   88.0290 C.3   152  TYR152      0.0574
    111  CG         6.5570   68.8020   88.3590 C.ar  152  TYR152     -0.0198
    112  CD1        5.5590   68.9240   87.3840 C.ar  152  TYR152     -0.0009
    113  CD2        6.2590   69.1870   89.6700 C.ar  152  TYR152     -0.0009
    114  CE1        4.2930   69.4070   87.7120 C.ar  152  TYR152      0.0417
    115  CE2        4.9950   69.6690   90.0110 C.ar  152  TYR152      0.0417
    116  CZ         4.0260   69.7710   89.0270 C.ar  152  TYR152      0.1957
    117  OH         2.7810   70.2250   89.3690 O.3   152  TYR152     -0.2866
    118  N         10.0030   70.4190   88.7450 N.am  153  PHE153     -0.1974
    119  CA        10.2910   71.6450   89.4860 C.3   153  PHE153      0.1639
    120  C         11.1800   72.6570   88.7690 C.2   153  PHE153      0.2290
    121  O         11.1480   73.8410   89.0910 O.2   153  PHE153     -0.2864
    122  CB        10.8910   71.3020   90.8640 C.3   153  PHE153      0.0560
    123  CG        10.0000   70.4410   91.7080 C.ar  153  PHE153     -0.0200
    124  CD1        9.9790   69.0600   91.5410 C.ar  153  PHE153     -0.0042
    125  CD2        9.1530   71.0140   92.6380 C.ar  153  PHE153     -0.0042
    126  CE1        9.1260   68.2700   92.2810 C.ar  153  PHE153     -0.0003
    127  CE2        8.2890   70.2230   93.3940 C.ar  153  PHE153     -0.0003
    128  CZ         8.2770   68.8530   93.2100 C.ar  153  PHE153     -0.0000
    129  N         13.6540   66.6870   96.9910 N.3   207  TYR207     -0.1241
    130  CA        12.3930   67.1060   97.5970 C.3   207  TYR207      0.1605
    131  C         12.4210   67.2470   99.1180 C.2   207  TYR207      0.2264
    132  O         12.0730   68.2970   99.6650 O.2   207  TYR207     -0.2867
    133  CB        11.2740   66.1300   97.2150 C.3   207  TYR207      0.0534
    134  CG         9.9020   66.6240   97.5880 C.ar  207  TYR207     -0.0201
    135  CD1        9.4000   66.4500   98.8780 C.ar  207  TYR207     -0.0009
    136  CD2        9.1160   67.3080   96.6540 C.ar  207  TYR207     -0.0009
    137  CE1        8.1520   66.9450   99.2370 C.ar  207  TYR207      0.0417
    138  CE2        7.8600   67.8090   97.0040 C.ar  207  TYR207      0.0417
    139  CZ         7.3960   67.6200   98.2970 C.ar  207  TYR207      0.1957
    140  OH         6.1760   68.1240   98.6730 O.3   207  TYR207     -0.2866
    141  N         -0.0280   70.4160   97.8920 N.3   227  TRP227     -0.1241
    142  CA         0.0880   69.3020   98.8330 C.3   227  TRP227      0.1605
    143  C          1.0830   69.6000   99.9540 C.2   227  TRP227      0.2264
    144  O          0.9670   69.0700  101.0570 O.2   227  TRP227     -0.2867
    145  CB         0.5090   68.0350   98.0740 C.3   227  TRP227      0.0550
    146  CG         1.7390   68.2340   97.2410 C.ar  227  TRP227      0.0003
    147  CD1        3.0330   68.1890   97.6710 C.ar  227  TRP227      0.0946
    148  CD2        1.7830   68.5710   95.8500 C.ar  227  TRP227      0.0152
    149  NE1        3.8850   68.4800   96.6350 N.ar  227  TRP227     -0.2442
    150  CE2        3.1530   68.7150   95.5110 C.ar  227  TRP227      0.0810
    151  CE3        0.8070   68.7620   94.8690 C.ar  227  TRP227      0.0012
    152  CZ2        3.5640   69.0480   94.2180 C.ar  227  TRP227      0.0191
    153  CZ3        1.2220   69.0930   93.5800 C.ar  227  TRP227      0.0001
    154  CH2        2.5920   69.2320   93.2690 C.ar  227  TRP227      0.0015
    155  N         -0.7940   70.0470   86.0240 N.3   257  GLY257     -0.1225
    156  CA        -1.3030   68.6890   86.0480 C.3   257  GLY257      0.1811
    157  C         -2.6900   68.6300   86.6520 C.2   257  GLY257      0.2280
    158  O         -3.0450   69.4020   87.5450 O.2   257  GLY257     -0.2866
    159  N         -4.7560   66.1780   88.6720 N.3   259  LEU259     -0.1245
    160  CA        -4.7000   64.9220   89.4130 C.3   259  LEU259      0.1561
    161  C         -5.9600   64.1870   88.9860 C.2   259  LEU259      0.2260
    162  O         -7.0620   64.7380   89.0640 O.2   259  LEU259     -0.2867
    163  CB        -4.7290   65.1820   90.9090 C.3   259  LEU259      0.0270
    164  CG        -4.8160   63.9570   91.8260 C.3   259  LEU259      0.0019
    165  CD1       -3.5620   63.1020   91.6810 C.3   259  LEU259      0.0001
    166  CD2       -4.9640   64.4320   93.2790 C.3   259  LEU259      0.0001
    167  N         -0.2730   70.0330   80.8170 N.3   327  MET327     -0.1245
    168  CA         0.5890   69.0230   80.2020 C.3   327  MET327      0.1570
    169  C         -0.0980   68.1830   79.1470 C.2   327  MET327      0.2261
    170  O         -1.3100   67.9720   79.1930 O.2   327  MET327     -0.2867
    171  CB         1.1210   68.0420   81.2450 C.3   327  MET327      0.0387
    172  CG         1.9830   68.6430   82.3340 C.3   327  MET327      0.0595
    173  SD         2.6710   67.3380   83.3920 S.3   327  MET327     -0.1393
    174  CE         1.3410   67.0860   84.5050 C.3   327  MET327      0.0692
    175  N          9.9140   63.2820   79.9630 N.3   337  TRP337     -0.1241
    176  CA        10.2900   63.5200   81.3510 C.3   337  TRP337      0.1605
    177  C         11.6210   62.8870   81.7350 C.2   337  TRP337      0.2264
    178  O         12.4390   63.5160   82.4110 O.2   337  TRP337     -0.2867
    179  CB         9.1890   63.0200   82.2910 C.3   337  TRP337      0.0550
    180  CG         8.0140   63.9650   82.4200 C.ar  337  TRP337      0.0003
    181  CD1        6.6910   63.6520   82.2610 C.ar  337  TRP337      0.0946
    182  CD2        8.0600   65.3470   82.7910 C.ar  337  TRP337      0.0152
    183  NE1        5.9090   64.7510   82.5160 N.ar  337  TRP337     -0.2442
    184  CE2        6.7170   65.8010   82.8430 C.ar  337  TRP337      0.0810
    185  CE3        9.1000   66.2380   83.0870 C.ar  337  TRP337      0.0012
    186  CZ2        6.3940   67.1160   83.1810 C.ar  337  TRP337      0.0191
    187  CZ3        8.7760   67.5500   83.4240 C.ar  337  TRP337      0.0001
    188  CH2        7.4240   67.9740   83.4680 C.ar  337  TRP337      0.0015
@<TRIPOS>BOND
     1   169   170    2
     2   169   168    1
     3   175   176    1
     4   168   167    1
     5   168   171    1
     6    57    56    2
     7   171   172    1
     8   176   177    1
     9   176   179    1
    10    65    64    2
    11    56    55    1
    12    56    62   am
    13   177   178    2
    14    55    58    1
    15    55    54    1
    16    64    63    1
    17    58    59    1
    18   181   180   ar
    19   181   183   ar
    20   179   180    1
    21   172   173    1
    22   180   182   ar
    23    63    62    1
    24    63    66    1
    25   183   184   ar
    26   182   184   ar
    27   182   185   ar
    28   184   186   ar
    29   185   187   ar
    30    61    59   ar
    31   186   188   ar
    32    71    70    1
    33    59    60   ar
    34   173   174    1
    35   187   188   ar
    36    66    67    1
    37    70    72    1
    38    70    69    2
    39    68    69    1
    40    68    67    1
    41   103   104    1
    42   103   100    1
    43   104   105    1
    44    52    51    2
    45   102   101    2
    46    51    50    1
    47    29    28    2
    48   155   156    1
    49   156   157    1
    50   100   101    1
    51   100    99    1
    52   101   106   am
    53   105    99    1
    54   157   158    2
    55   106   107    1
    56    28    27    1
    57    53    50    1
    58    99    92   am
    59   107   108    1
    60   107   110    1
    61    50    49    1
    62    41    43   ar
    63    41    40   ar
    64   112   114   ar
    65   112   111   ar
    66    31    30    1
    67    31    32    1
    68   109   108    2
    69    43    44   ar
    70    30    27    1
    71   114   116   ar
    72   108   118   am
    73    38    37    2
    74    27    26    1
    75   110   111    1
    76    49    37   am
    77    40    39    1
    78    40    42   ar
    79    37    36    1
    80   111   113   ar
    81    76    75    2
    82    39    36    1
    83    92    93    2
    84    92    91    1
    85   159   160    1
    86    44    42   ar
    87    44    46   ar
    88   118   119    1
    89    34    32   ar
    90   120   121    2
    91   120   119    1
    92    32    33   ar
    93    97    96   ar
    94   161   162    2
    95   161   160    1
    96   116   117    1
    97   116   115   ar
    98    42    45   ar
    99    36    35    1
   100    46    48   ar
   101    91    94    1
   102    91    90    1
   103   160   163    1
   104   119   122    1
   105    75    74    1
   106    73    74    1
   107   113   115   ar
   108    96    98   ar
   109    96    95    1
   110    94    95    1
   111    74    77    1
   112    45    47   ar
   113    48    47   ar
   114    80    79   ar
   115    77    78    1
   116   122   123    1
   117   163   164    1
   118    78    79    1
   119    79    81   ar
   120   124   123   ar
   121   124   126   ar
   122   165   164    1
   123   123   125   ar
   124   164   166    1
   125    85    84    2
   126   126   128   ar
   127   125   127   ar
   128    84    83    1
   129   128   127   ar
   130   154   153   ar
   131   154   152   ar
   132   153   151   ar
   133    88    87    2
   134    89    87   am
   135    87    86    1
   136    25    24    1
   137    86    83    1
   138   152   150   ar
   139    24    23    1
   140    83    82    1
   141     7     6    2
   142     6     5    1
   143     6     8   am
   144     5     2    1
   145   151   148   ar
   146     1     2    1
   147   150   148   ar
   148   150   149   ar
   149     2     3    1
   150    16    14   ar
   151    23    22    1
   152   148   146   ar
   153    15    14   ar
   154    22    21    1
   155    14    13    1
   156   149   147   ar
   157   136   138   ar
   158   136   134   ar
   159   129   130    1
   160   138   139   ar
   161     3     4    2
   162   133   134    1
   163   133   130    1
   164   146   147   ar
   165   146   145    1
   166    21    18    1
   167   134   135   ar
   168   130   131    1
   169    13    10    1
   170   141   142    1
   171   145   142    1
   172   139   140    1
   173   139   137   ar
   174     9    10    1
   175    17    18    1
   176    17    11   am
   177    18    19    1
   178   142   143    1
   179    10    11    1
   180   135   137   ar
   181    11    12    2
   182   131   132    2
   183    19    20    2
   184   143   144    2
