@<TRIPOS>MOLECULE
tmp/1y4lA01.pdb
 142 137 0 0 0
SMALL
GASTEIGER

@<TRIPOS>ATOM
      1  N         11.0070   -4.4890   12.3280 N.3     2  LEU2       -0.1231
      2  CA        10.2400   -3.9640   13.4440 C.3     2  LEU2        0.1693
      3  C          9.6060   -5.0940   14.2320 C.2     2  LEU2        0.2592
      4  O          9.3110   -4.9280   15.4020 O.2     2  LEU2       -0.2718
      5  CB         9.1650   -2.9970   12.9640 C.3     2  LEU2        0.0284
      6  CG         9.6660   -1.5870   12.6360 C.3     2  LEU2        0.0019
      7  CD1        8.6610   -0.8470   11.7560 C.3     2  LEU2        0.0001
      8  CD2        9.9830   -0.7750   13.8940 C.3     2  LEU2        0.0001
      9  N          9.3710   -6.2330   13.5920 N.am    3  PHE3       -0.1976
     10  CA         8.7900   -7.3640   14.3150 C.3     3  PHE3        0.1639
     11  C          9.7450   -7.8460   15.3980 C.2     3  PHE3        0.2290
     12  O          9.3410   -8.0290   16.5340 O.2     3  PHE3       -0.2864
     13  CB         8.4760   -8.5180   13.3680 C.3     3  PHE3        0.0560
     14  CG         7.3750   -8.2070   12.4200 C.ar    3  PHE3       -0.0200
     15  CD1        7.6490   -7.9520   11.0730 C.ar    3  PHE3       -0.0042
     16  CD2        6.0600   -8.1210   12.8730 C.ar    3  PHE3       -0.0042
     17  CE1        6.6240   -7.6540   10.1980 C.ar    3  PHE3       -0.0003
     18  CE2        5.0280   -7.8230   12.0010 C.ar    3  PHE3       -0.0003
     19  CZ         5.3100   -7.5960   10.6640 C.ar    3  PHE3       -0.0000
     20  N         12.2880   -6.2090   16.6210 N.3     5  LEU5       -0.1231
     21  CA        12.5190   -5.0940   17.5460 C.3     5  LEU5        0.1693
     22  C         11.4070   -4.9980   18.5780 C.2     5  LEU5        0.2593
     23  O         11.6410   -4.9280   19.8000 O.2     5  LEU5       -0.2718
     24  CB        12.6410   -3.7830   16.7480 C.3     5  LEU5        0.0284
     25  CG        12.6260   -2.5350   17.6350 C.3     5  LEU5        0.0019
     26  CD1       13.8510   -2.6140   18.5870 C.3     5  LEU5        0.0001
     27  CD2       12.6810   -1.3080   16.7740 C.3     5  LEU5        0.0001
     28  N         10.1660   -5.0150   18.1040 N.am    6  GLY6       -0.1942
     29  CA         9.0260   -4.9770   19.0270 C.3     6  GLY6        0.2014
     30  C          9.0380   -6.1550   19.9820 C.2     6  GLY6        0.2638
     31  O          8.7450   -5.9980   21.1810 O.2     6  GLY6       -0.2714
     32  N          9.3890   -7.3320   19.4840 N.am    7  LYS7       -0.1977
     33  CA         9.3700   -8.5010   20.3400 C.3     7  LYS7        0.1596
     34  C         10.4330   -8.3190   21.4240 C.2     7  LYS7        0.2287
     35  O         10.1840   -8.5850   22.6070 O.2     7  LYS7       -0.2864
     36  CB         9.6680   -9.7680   19.5540 C.3     7  LYS7        0.0298
     37  CG         9.2630  -10.9820   20.3230 C.3     7  LYS7        0.0038
     38  CD         9.6250  -12.2390   19.6040 C.3     7  LYS7        0.0206
     39  CE         8.9750  -13.4110   20.2440 C.3     7  LYS7        0.1093
     40  NZ         9.2590  -14.6190   19.4160 N.3     7  LYS7       -0.1314
     41  N         11.6690   -5.4940   22.6130 N.3     9  ILE9       -0.1231
     42  CA        11.1960   -4.4980   23.5790 C.3     9  ILE9        0.1692
     43  C         10.1760   -5.0920   24.5410 C.2     9  ILE9        0.2591
     44  O         10.2450   -4.8720   25.7480 O.2     9  ILE9       -0.2718
     45  CB        10.6660   -3.2630   22.8710 C.3     9  ILE9        0.0266
     46  CG1       11.8330   -2.5770   22.1640 C.3     9  ILE9        0.0019
     47  CG2       10.0180   -2.2970   23.8440 C.3     9  ILE9        0.0020
     48  CD1       11.3910   -1.4550   21.2150 C.3     9  ILE9        0.0001
     49  N          9.2360   -5.8600   24.0090 N.am   10  LEU10      -0.1980
     50  CA         8.2520   -6.5070   24.8650 C.3    10  LEU10       0.1596
     51  C          8.9280   -7.4200   25.8860 C.2    10  LEU10       0.2287
     52  O          8.5370   -7.4760   27.0460 O.2    10  LEU10      -0.2864
     53  CB         7.3150   -7.3410   23.9990 C.3    10  LEU10       0.0297
     54  CG         6.2720   -8.1120   24.7990 C.3    10  LEU10       0.0022
     55  CD1        5.3400   -7.2070   25.5360 C.3    10  LEU10       0.0001
     56  CD2        5.4950   -9.0070   23.8370 C.3    10  LEU10       0.0001
     57  N          5.1100   -2.6870   23.0380 N.3    17  PRO17      -0.2102
     58  CA         6.1140   -1.8080   22.4570 C.3    17  PRO17       0.1504
     59  C          5.4700   -0.6970   21.6430 C.2    17  PRO17       0.2575
     60  O          5.9220    0.4440   21.6970 O.2    17  PRO17      -0.2718
     61  CB         6.9750   -2.7450   21.5870 C.3    17  PRO17       0.0282
     62  CG         6.1680   -3.9740   21.4080 C.3    17  PRO17       0.0208
     63  CD         5.1760   -4.0600   22.5120 C.3    17  PRO17       0.0893
     64  N          4.4070   -1.0230   20.9130 N.am   18  ALA18      -0.1980
     65  CA         3.7300    0.0050   20.1130 C.3    18  ALA18       0.1597
     66  C          3.1770    1.0910   21.0230 C.2    18  ALA18       0.2287
     67  O          3.3500    2.2920   20.7810 O.2    18  ALA18      -0.2864
     68  CB         2.6080   -0.6390   19.2620 C.3    18  ALA18       0.0319
     69  N          6.3310    2.6790   23.2030 N.3    21  TYR21      -0.1227
     70  CA         7.5090    3.2320   22.5790 C.3    21  TYR21       0.1736
     71  C          7.2890    3.5300   21.1280 C.2    21  TYR21       0.2596
     72  O          8.2200    3.9460   20.4620 O.2    21  TYR21      -0.2718
     73  CB         8.6630    2.2390   22.7310 C.3    21  TYR21       0.0548
     74  CG         8.9650    1.9630   24.1880 C.ar   21  TYR21      -0.0200
     75  CD1        8.6270    0.7520   24.7660 C.ar   21  TYR21      -0.0009
     76  CD2        9.5720    2.9360   24.9830 C.ar   21  TYR21      -0.0009
     77  CE1        8.9100    0.5010   26.0890 C.ar   21  TYR21       0.0417
     78  CE2        9.8590    2.6950   26.3070 C.ar   21  TYR21       0.0417
     79  CZ         9.5400    1.4740   26.8470 C.ar   21  TYR21       0.1957
     80  OH         9.8180    1.2320   28.1570 O.3    21  TYR21      -0.2866
     81  N          6.0590    3.3450   20.6310 N.am   22  GLY22      -0.1957
     82  CA         5.8330    3.6050   19.2050 C.3    22  GLY22       0.1869
     83  C          5.8420    5.0800   18.8830 C.2    22  GLY22       0.2309
     84  O          6.0640    5.4800   17.7430 O.2    22  GLY22      -0.2863
     85  N         12.4620   10.6290   19.9180 N.3    27  ASN27      -0.1225
     86  CA        13.2380    9.6010   19.2110 C.3    27  ASN27       0.1785
     87  C         12.6230    8.2270   19.0500 C.2    27  ASN27       0.2597
     88  O         13.0390    7.4730   18.1710 O.2    27  ASN27      -0.2718
     89  CB        14.6050    9.4480   19.8510 C.3    27  ASN27       0.1169
     90  CG        15.4120   10.7060   19.7480 C.2    27  ASN27       0.2627
     91  OD1       16.0660   10.9420   18.7380 O.2    27  ASN27      -0.2716
     92  ND2       15.3730   11.5220   20.7940 N.am   27  ASN27      -0.0877
     93  N         11.6940    7.8720   19.9220 N.am   28  CYS28      -0.1956
     94  CA        11.1130    6.5510   19.8270 C.3    28  CYS28       0.1843
     95  C          9.9760    6.6230   18.8480 C.2    28  CYS28       0.2626
     96  O          8.9850    7.2820   19.1190 O.2    28  CYS28      -0.2714
     97  CB        10.5700    6.1030   21.1820 C.3    28  CYS28       0.0997
     98  SG        11.8190    6.1000   22.4880 S.3    28  CYS28      -0.0797
     99  N         10.0970    5.9100   17.7440 N.am   29  GLY29      -0.1954
    100  CA         8.9820    5.8580   16.7940 C.3    29  GLY29       0.1869
    101  C          9.3950    6.3660   15.4390 C.2    29  GLY29       0.2309
    102  O         10.5260    6.1500   15.0130 O.2    29  GLY29      -0.2863
    103  N         16.2430    5.5930   22.4410 N.3    44  CYS44      -0.1235
    104  CA        15.7640    5.5370   21.0640 C.3    44  CYS44       0.1677
    105  C         16.6270    6.3470   20.1400 C.2    44  CYS44       0.2270
    106  O         16.8360    5.9850   18.9840 O.2    44  CYS44      -0.2867
    107  CB        14.3380    6.0280   20.9990 C.3    44  CYS44       0.0956
    108  SG        13.2580    4.8590   21.7680 S.3    44  CYS44      -0.0801
    109  N         19.5940    4.3160   19.4820 N.3    47  HIS47      -0.1226
    110  CA        19.1800    3.2500   18.5940 C.3    47  HIS47       0.1752
    111  C         19.1640    3.7120   17.1270 C.2    47  HIS47       0.2595
    112  O         19.6740    3.0420   16.2250 O.2    47  HIS47      -0.2718
    113  CB        17.7970    2.7760   19.0640 C.3    47  HIS47       0.0759
    114  CG        17.2190    1.6660   18.2520 C.ar   47  HIS47       0.0818
    115  ND1       16.0560    1.8150   17.5300 N.ar   47  HIS47      -0.2268
    116  CD2       17.6300    0.3910   18.0570 C.ar   47  HIS47       0.1154
    117  CE1       15.7720    0.6770   16.9210 C.ar   47  HIS47       0.1986
    118  NE2       16.7090   -0.2020   17.2230 N.ar   47  HIS47      -0.2212
    119  N         18.6030    4.8890   16.9030 N.am   48  LYS48      -0.1980
    120  CA        18.5630    5.4420   15.5610 C.3    48  LYS48       0.1596
    121  C         19.9730    5.7560   15.0700 C.2    48  LYS48       0.2287
    122  O         20.2820    5.5360   13.9160 O.2    48  LYS48      -0.2864
    123  CB        17.6400    6.6500   15.5450 C.3    48  LYS48       0.0298
    124  CG        16.2090    6.1940   15.4080 C.3    48  LYS48       0.0038
    125  CD        15.2250    7.3220   15.5340 C.3    48  LYS48       0.0206
    126  CE        13.8280    6.7980   15.1820 C.3    48  LYS48       0.1093
    127  NZ        12.7450    7.8000   15.5340 N.3    48  LYS48      -0.1314
    128  N         18.6250   -1.3410   22.3380 N.3    92  VAL92      -0.1245
    129  CA        17.5750   -0.3860   22.6820 C.3    92  VAL92       0.1561
    130  C         16.5520   -1.0270   23.6230 C.2    92  VAL92       0.2260
    131  O         16.0770   -0.3910   24.5400 O.2    92  VAL92      -0.2867
    132  CB        16.9090    0.2210   21.4310 C.3    92  VAL92       0.0252
    133  CG1       15.9590   -0.8160   20.7550 C.3    92  VAL92       0.0019
    134  CG2       16.1360    1.4890   21.8070 C.3    92  VAL92       0.0019
    135  N         15.7060    0.6360   27.0590 N.3    96  LEU96      -0.1245
    136  CA        14.3640    1.0150   27.4200 C.3    96  LEU96       0.1561
    137  C         13.9910    0.4000   28.7540 C.2    96  LEU96       0.2260
    138  O         13.4070    1.0840   29.5970 O.2    96  LEU96      -0.2867
    139  CB        13.4200    0.5010   26.3290 C.3    96  LEU96       0.0270
    140  CG        13.0060    1.4350   25.1840 C.3    96  LEU96       0.0019
    141  CD1       13.4780    2.8760   25.2070 C.3    96  LEU96       0.0001
    142  CD2       12.7800    0.7720   23.8380 C.3    96  LEU96       0.0001
@<TRIPOS>BOND
     1    17    19   ar
     2    17    15   ar
     3    19    18   ar
     4    15    14   ar
     5     7     6    1
     6    18    16   ar
     7     1     2    1
     8    14    16   ar
     9    14    13    1
    10     6     5    1
    11     6     8    1
    12     5     2    1
    13    13    10    1
    14     2     3    1
    15     9     3   am
    16     9    10    1
    17   122   121    2
    18     3     4    2
    19    10    11    1
    20   102   101    2
    21   121   120    1
    22   126   125    1
    23   126   127    1
    24    11    12    2
    25   124   125    1
    26   124   123    1
    27   101   100    1
    28   123   120    1
    29   120   119    1
    30   112   111    2
    31    20    21    1
    32    24    21    1
    33    24    25    1
    34    27    25    1
    35   100    99    1
    36   119   111   am
    37   117   118   ar
    38   117   115   ar
    39   111   110    1
    40   118   116   ar
    41   115   114   ar
    42    21    22    1
    43    25    26    1
    44    84    83    2
    45    99    95   am
    46   116   114   ar
    47    28    22   am
    48    28    29    1
    49    88    87    2
    50   114   113    1
    51    22    23    2
    52   110   113    1
    53   110   109    1
    54    91    90    2
    55    95    96    2
    56    95    94    1
    57    83    82    1
    58   106   105    2
    59    29    30    1
    60    87    86    1
    61    87    93   am
    62    82    81    1
    63    86    89    1
    64    86    85    1
    65    68    65    1
    66    40    39    1
    67    32    30   am
    68    32    33    1
    69    36    37    1
    70    36    33    1
    71    38    39    1
    72    38    37    1
    73    90    89    1
    74    90    92   am
    75    94    93    1
    76    94    97    1
    77    30    31    2
    78    65    64    1
    79    65    66    1
    80   105   104    1
    81    33    34    1
    82    72    71    2
    83    81    71   am
    84   133   132    1
    85    67    66    2
    86    64    59   am
    87   107   104    1
    88   107   108    1
    89   104   103    1
    90    71    70    1
    91    97    98    1
    92    48    46    1
    93    62    61    1
    94    62    63    1
    95    34    35    2
    96   132   134    1
    97   132   129    1
    98    61    58    1
    99    59    60    2
   100    59    58    1
   101   108    98    1
   102    46    45    1
   103   128   129    1
   104    58    57    1
   105    63    57    1
   106    70    73    1
   107    70    69    1
   108    41    42    1
   109   129   130    1
   110    73    74    1
   111    45    42    1
   112    45    47    1
   113    42    43    1
   114   130   131    2
   115    56    54    1
   116   142   140    1
   117    53    54    1
   118    53    50    1
   119    49    43   am
   120    49    50    1
   121    74    75   ar
   122    74    76   ar
   123    43    44    2
   124    75    77   ar
   125    54    55    1
   126    50    51    1
   127    76    78   ar
   128   140   141    1
   129   140   139    1
   130    51    52    2
   131    77    79   ar
   132    78    79   ar
   133   139   136    1
   134    79    80    1
   135   135   136    1
   136   136   137    1
   137   137   138    2
