@<TRIPOS>MOLECULE
tmp/1y54A00.pdb
 106 99 0 0 0
SMALL
GASTEIGER

@<TRIPOS>ATOM
      1  N         13.2190   23.7510   23.7980 N.3    62  SER62      -0.1217
      2  CA        12.3270   23.9240   24.9400 C.3    62  SER62       0.1889
      3  C         11.3060   22.8170   25.1490 C.2    62  SER62       0.2288
      4  O         10.5870   22.8980   26.1690 O.2    62  SER62      -0.2866
      5  CB        11.5850   25.2680   24.8120 C.3    62  SER62       0.2089
      6  OG        12.7000   26.0950   25.1450 O.3    62  SER62      -0.2183
      7  N         14.2490   34.8600   31.1890 N.3   117  LEU117     -0.1231
      8  CA        14.1640   33.8840   30.1240 C.3   117  LEU117      0.1693
      9  C         15.2780   32.8470   30.1500 C.2   117  LEU117      0.2591
     10  O         15.0760   31.6350   30.2130 O.2   117  LEU117     -0.2718
     11  CB        14.2240   34.5680   28.7500 C.3   117  LEU117      0.0284
     12  CG        14.2050   33.5580   27.5920 C.3   117  LEU117      0.0019
     13  CD1       12.8340   32.9090   27.4700 C.3   117  LEU117      0.0001
     14  CD2       14.6340   34.2400   26.3040 C.3   117  LEU117      0.0001
     15  N         16.5020   33.3630   30.0810 N.am  118  GLN118     -0.1979
     16  CA        17.6430   32.4580   30.1590 C.3   118  GLN118      0.1601
     17  C         18.4350   32.6960   31.4400 C.2   118  GLN118      0.2287
     18  O         18.1770   33.6440   32.1810 O.2   118  GLN118     -0.2864
     19  CB        18.5250   32.6360   28.9230 C.3   118  GLN118      0.0394
     20  CG        18.8070   31.3460   28.1710 C.3   118  GLN118      0.0908
     21  CD        18.5440   31.4690   26.6830 C.2   118  GLN118      0.2608
     22  OE1       17.4380   31.8070   26.2630 O.2   118  GLN118     -0.2717
     23  NE2       19.5640   31.1950   25.8770 N.am  118  GLN118     -0.0878
     24  N          7.6480   33.2580   30.7630 N.3   148  TYR148     -0.1241
     25  CA         8.3410   32.0770   30.2800 C.3   148  TYR148      0.1605
     26  C          9.8310   32.1580   30.5620 C.2   148  TYR148      0.2264
     27  O         10.4910   33.1350   30.2040 O.2   148  TYR148     -0.2867
     28  CB         8.1060   31.9150   28.7700 C.3   148  TYR148      0.0534
     29  CG         8.6920   30.6260   28.2290 C.ar  148  TYR148     -0.0201
     30  CD1        7.9660   29.4480   28.3180 C.ar  148  TYR148     -0.0009
     31  CD2        9.9470   30.5870   27.6490 C.ar  148  TYR148     -0.0009
     32  CE1        8.4670   28.2580   27.8410 C.ar  148  TYR148      0.0417
     33  CE2       10.4600   29.3970   27.1610 C.ar  148  TYR148      0.0417
     34  CZ         9.7150   28.2460   27.2630 C.ar  148  TYR148      0.1957
     35  OH        10.2090   27.0600   26.7890 O.3   148  TYR148     -0.2866
     36  N         13.7500   29.8800   31.4570 N.3   150  ASN150     -0.1240
     37  CA        14.5480   28.7020   31.7640 C.3   150  ASN150      0.1653
     38  C         15.0180   28.7380   33.2220 C.2   150  ASN150      0.2266
     39  O         15.0390   27.7090   33.9050 O.2   150  ASN150     -0.2867
     40  CB        15.7470   28.5930   30.8320 C.3   150  ASN150      0.1155
     41  CG        15.4350   28.4940   29.3580 C.2   150  ASN150      0.2627
     42  OD1       14.3280   28.1770   28.9280 O.2   150  ASN150     -0.2716
     43  ND2       16.4580   28.7720   28.5560 N.am  150  ASN150     -0.0877
     44  N         23.8770   22.5580   19.7060 N.3   209  VAL209     -0.1245
     45  CA        23.6870   23.2180   20.9900 C.3   209  VAL209      0.1561
     46  C         24.9500   23.1200   21.8360 C.2   209  VAL209      0.2260
     47  O         25.7240   22.1730   21.7250 O.2   209  VAL209     -0.2867
     48  CB        22.4800   22.6130   21.7270 C.3   209  VAL209      0.0252
     49  CG1       22.8100   21.2320   22.2710 C.3   209  VAL209      0.0019
     50  CG2       22.0200   23.5370   22.8440 C.3   209  VAL209      0.0019
     51  N         16.2970   22.9010   27.9250 N.3   219  TYR219     -0.1241
     52  CA        16.4160   22.8180   26.4700 C.3   219  TYR219      0.1605
     53  C         17.3290   21.7300   25.9300 C.2   219  TYR219      0.2264
     54  O         17.4710   21.6770   24.6980 O.2   219  TYR219     -0.2867
     55  CB        16.9310   24.1640   25.9330 C.3   219  TYR219      0.0534
     56  CG        18.2310   24.6730   26.4980 C.ar  219  TYR219     -0.0201
     57  CD1       19.4620   24.2350   26.0350 C.ar  219  TYR219     -0.0009
     58  CD2       18.2490   25.6240   27.5140 C.ar  219  TYR219     -0.0009
     59  CE1       20.6490   24.7080   26.5570 C.ar  219  TYR219      0.0417
     60  CE2       19.4260   26.1080   28.0490 C.ar  219  TYR219      0.0417
     61  CZ        20.6300   25.6490   27.5690 C.ar  219  TYR219      0.1957
     62  OH        21.8180   26.1220   28.0870 O.3   219  TYR219     -0.2866
     63  N          6.8530   35.2870   24.7680 N.3   291  LEU291     -0.1245
     64  CA         7.9810   35.6820   25.5960 C.3   291  LEU291      0.1561
     65  C          7.6860   36.9230   26.4250 C.2   291  LEU291      0.2260
     66  O          8.5760   37.5680   26.9710 O.2   291  LEU291     -0.2867
     67  CB         9.2040   35.9190   24.7000 C.3   291  LEU291      0.0270
     68  CG         9.5890   34.7530   23.7840 C.3   291  LEU291      0.0019
     69  CD1       11.0200   34.8980   23.2920 C.3   291  LEU291      0.0001
     70  CD2        9.3990   33.4240   24.5000 C.3   291  LEU291      0.0001
     71  N          6.1520   24.2080   21.8970 N.3   314  THR314     -0.1203
     72  CA         7.1310   24.5660   20.8800 C.3   314  THR314      0.1994
     73  C          8.5260   24.5380   21.4830 C.2   314  THR314      0.2618
     74  O          8.7020   24.6010   22.7050 O.2   314  THR314     -0.2717
     75  CB         6.8870   25.9620   20.2800 C.3   314  THR314      0.1784
     76  OG1        7.5370   26.9550   21.0900 O.3   314  THR314     -0.2211
     77  CG2        5.4080   26.3290   20.2750 C.3   314  THR314      0.0376
     78  N          9.5680   24.4570   20.6510 N.am  315  GLY315     -0.1942
     79  CA        10.8700   24.5240   21.3140 C.3   315  GLY315      0.2014
     80  C         12.0010   24.5100   20.3160 C.2   315  GLY315      0.2640
     81  O         11.9020   23.7630   19.3450 O.2   315  GLY315     -0.2714
     82  N         13.0380   25.3040   20.5660 N.am  316  SER316     -0.1935
     83  CA        14.1600   25.3490   19.6410 C.3   316  SER316      0.2055
     84  C         15.4920   25.6440   20.3240 C.2   316  SER316      0.2644
     85  O         15.5730   25.9970   21.4960 O.2   316  SER316     -0.2714
     86  CB        13.8970   26.3990   18.5540 C.3   316  SER316      0.2130
     87  OG        12.5100   26.6870   18.4410 O.3   316  SER316     -0.2179
     88  N         16.5120   25.4740   19.5030 N.am  317  THR317     -0.1936
     89  CA        17.9120   25.7490   19.7280 C.3   317  THR317      0.2028
     90  C         18.4600   26.5360   18.5330 C.2   317  THR317      0.2642
     91  O         17.6720   26.9270   17.6690 O.2   317  THR317     -0.2714
     92  CB        18.7190   24.4590   19.9250 C.3   317  THR317      0.1808
     93  OG1       18.6500   23.6590   18.7390 O.3   317  THR317     -0.2208
     94  CG2       18.0980   23.6230   21.0370 C.3   317  THR317      0.0379
     95  N         19.7610   26.7480   18.5070 N.am  318  GLY318     -0.1954
     96  CA        20.4370   27.4410   17.4380 C.3   318  GLY318      0.1869
     97  C         19.9630   26.9540   16.0790 C.2   318  GLY318      0.2309
     98  O         19.3400   27.7230   15.3470 O.2   318  GLY318     -0.2863
     99  N          7.9330   29.9450   14.7220 N.3   344  ASN344     -0.1240
    100  CA         6.9980   29.2360   15.5750 C.3   344  ASN344      0.1653
    101  C          5.5700   29.2330   15.0580 C.2   344  ASN344      0.2266
    102  O          4.9090   28.1850   15.0540 O.2   344  ASN344     -0.2867
    103  CB         6.9960   29.8520   16.9830 C.3   344  ASN344      0.1155
    104  CG         8.1910   29.4160   17.8050 C.2   344  ASN344      0.2627
    105  OD1        8.8900   28.4580   17.4820 O.2   344  ASN344     -0.2716
    106  ND2        8.4290   30.1440   18.8900 N.am  344  ASN344     -0.0877
@<TRIPOS>BOND
     1    99   100    1
     2   102   101    2
     3   101   100    1
     4    98    97    2
     5   100   103    1
     6    97    96    1
     7   103   104    1
     8    96    95    1
     9   105   104    2
    10    91    90    2
    11   104   106   am
    12    87    86    1
    13    95    90   am
    14    90    89    1
    15    86    83    1
    16    93    92    1
    17    81    80    2
    18    88    89    1
    19    88    84   am
    20    83    84    1
    21    83    82    1
    22    44    45    1
    23    89    92    1
    24    92    94    1
    25    77    75    1
    26    75    72    1
    27    75    76    1
    28    80    82   am
    29    80    79    1
    30    84    85    2
    31    78    79    1
    32    78    73   am
    33    72    73    1
    34    72    71    1
    35    45    48    1
    36    45    46    1
    37    73    74    2
    38    47    46    2
    39    48    49    1
    40    48    50    1
    41    69    68    1
    42    68    70    1
    43    68    67    1
    44     1     2    1
    45    54    53    2
    46    67    64    1
    47    63    64    1
    48     5     2    1
    49     5     6    1
    50     2     3    1
    51     3     4    2
    52    64    65    1
    53    23    21   am
    54    53    52    1
    55    55    52    1
    56    55    56    1
    57    57    56   ar
    58    57    59   ar
    59    22    21    2
    60    14    12    1
    61    65    66    2
    62    52    51    1
    63    56    58   ar
    64    59    61   ar
    65    21    20    1
    66    35    34    1
    67    33    34   ar
    68    33    31   ar
    69    34    32   ar
    70    13    12    1
    71    58    60   ar
    72    61    60   ar
    73    61    62    1
    74    12    11    1
    75    31    29   ar
    76    32    30   ar
    77    20    19    1
    78    29    30   ar
    79    29    28    1
    80    43    41   am
    81    11     8    1
    82    28    25    1
    83    19    16    1
    84    42    41    2
    85    41    40    1
    86    15     9   am
    87    15    16    1
    88     8     9    1
    89     8     7    1
    90     9    10    2
    91    16    17    1
    92    27    26    2
    93    25    26    1
    94    25    24    1
    95    40    37    1
    96    17    18    2
    97    36    37    1
    98    37    38    1
    99    38    39    2
