@<TRIPOS>MOLECULE
tmp/1y56A02.pdb
 133 132 0 0 0
SMALL
GASTEIGER

@<TRIPOS>ATOM
      1  N         75.4450   81.6460   41.3810 N.3     9  LYS9       -0.1231
      2  CA        76.3520   82.4240   40.5580 C.3     9  LYS9        0.1693
      3  C         75.6390   83.6440   39.9720 C.2     9  LYS9        0.2591
      4  O         74.5120   83.5400   39.4560 O.2     9  LYS9       -0.2718
      5  CB        76.9800   81.5500   39.4720 C.3     9  LYS9        0.0285
      6  CG        77.6730   80.2960   40.0190 C.3     9  LYS9        0.0035
      7  CD        78.9870   80.6240   40.7200 C.3     9  LYS9        0.0206
      8  CE        79.1290   79.8910   42.0460 C.3     9  LYS9        0.1093
      9  NZ        79.2350   78.4210   41.8820 N.3     9  LYS9       -0.1314
     10  N         76.2960   84.7970   40.0900 N.am   10  ARG10      -0.1980
     11  CA        75.7490   86.0570   39.5920 C.3    10  ARG10       0.1597
     12  C         76.4650   86.5830   38.3510 C.2    10  ARG10       0.2287
     13  O         76.2290   87.7170   37.9330 O.2    10  ARG10      -0.2864
     14  CB        75.7230   87.1320   40.6770 C.3    10  ARG10       0.0334
     15  CG        76.8000   87.0040   41.7150 C.3    10  ARG10       0.0492
     16  CD        76.2110   86.6050   43.0620 C.3    10  ARG10       0.2205
     17  NE        75.7320   87.7680   43.8180 N.pl3  10  ARG10      -0.0865
     18  CZ        74.4890   88.2600   43.7750 C.cat  10  ARG10       0.5346
     19  NH1       73.5510   87.7010   43.0090 N.pl3  10  ARG10       0.1354
     20  NH2       74.1800   89.3250   44.5070 N.pl3  10  ARG10       0.1354
     21  N         82.9720   82.7140   31.8470 N.3    28  GLY28      -0.1210
     22  CA        84.2660   82.7070   32.5000 C.3    28  GLY28       0.1956
     23  C         84.5940   81.3510   33.0850 C.2    28  GLY28       0.2612
     24  O         85.7580   81.0610   33.3570 O.2    28  GLY28      -0.2717
     25  N         83.5640   80.5310   33.2860 N.am   29  GLU29      -0.1965
     26  CA        83.7320   79.1770   33.7950 C.3    29  GLU29       0.1733
     27  C         84.4770   78.3190   32.8000 C.2    29  GLU29       0.2616
     28  O         84.3180   78.4710   31.5980 O.2    29  GLU29      -0.2715
     29  CB        82.3800   78.5310   34.0760 C.3    29  GLU29       0.0429
     30  CG        81.7270   78.9870   35.3610 C.3    29  GLU29       0.1163
     31  CD        80.5830   78.0790   35.7760 C.2    29  GLU29       0.3649
     32  OE1       79.7980   77.6600   34.8910 O.co2  29  GLU29      -0.2457
     33  OE2       80.4710   77.7840   36.9910 O.co2  29  GLU29      -0.2457
     34  N         85.2910   77.4100   33.3100 N.am   30  LYS30      -0.1977
     35  CA        85.9990   76.4910   32.4520 C.3    30  LYS30       0.1596
     36  C         85.2030   75.2180   32.3040 C.2    30  LYS30       0.2287
     37  O         84.5900   74.7310   33.2520 O.2    30  LYS30      -0.2864
     38  CB        87.4190   76.2500   32.9630 C.3    30  LYS30       0.0298
     39  CG        88.3060   77.4490   32.6590 C.3    30  LYS30       0.0038
     40  CD        89.7450   77.3040   33.1380 C.3    30  LYS30       0.0206
     41  CE        90.5460   78.6120   32.9290 C.3    30  LYS30       0.1093
     42  NZ        90.2780   79.2680   31.5930 N.3    30  LYS30      -0.1314
     43  N         87.3190   77.9360   28.0820 N.3    76  LYS76      -0.1245
     44  CA        86.2590   78.7020   28.7400 C.3    76  LYS76       0.1561
     45  C         84.9390   78.4430   28.0510 C.2    76  LYS76       0.2260
     46  O         84.8640   78.3690   26.8210 O.2    76  LYS76      -0.2867
     47  CB        86.5410   80.1980   28.7010 C.3    76  LYS76       0.0271
     48  CG        87.7570   80.6020   29.4720 C.3    76  LYS76       0.0035
     49  CD        88.0580   82.0730   29.2610 C.3    76  LYS76       0.0206
     50  CE        89.4580   82.4190   29.7510 C.3    76  LYS76       0.1093
     51  NZ        89.8040   83.8100   29.3750 N.3    76  LYS76      -0.1314
     52  N         98.4920   79.9700   35.4160 N.3   131  ARG131     -0.1231
     53  CA        97.2900   79.5810   36.1130 C.3   131  ARG131      0.1694
     54  C         96.0770   80.4860   35.9640 C.2   131  ARG131      0.2593
     55  O         94.9900   80.0860   36.3510 O.2   131  ARG131     -0.2718
     56  CB        97.5850   79.3730   37.5920 C.3   131  ARG131      0.0321
     57  CG        96.7210   78.3500   38.2480 C.3   131  ARG131      0.0489
     58  CD        97.4880   77.1020   38.5020 C.3   131  ARG131      0.2205
     59  NE        98.1510   77.1480   39.8000 N.pl3 131  ARG131     -0.0865
     60  CZ        97.8620   76.3490   40.8230 C.cat 131  ARG131      0.5346
     61  NH1       96.9180   75.4220   40.7220 N.pl3 131  ARG131      0.1354
     62  NH2       98.5380   76.4620   41.9560 N.pl3 131  ARG131      0.1354
     63  N         96.1950   81.6880   35.4290 N.am  132  GLY132     -0.1942
     64  CA        94.9650   82.4990   35.3480 C.3   132  GLY132      0.2014
     65  C         94.6240   83.3180   36.5960 C.2   132  GLY132      0.2638
     66  O         93.9410   84.3350   36.5070 O.2   132  GLY132     -0.2714
     67  N         95.1050   82.8870   37.7560 N.am  133  TRP133     -0.1973
     68  CA        95.1070   83.7300   38.9500 C.3   133  TRP133      0.1640
     69  C         96.5050   83.7860   39.5390 C.2   133  TRP133      0.2290
     70  O         97.3530   82.9170   39.2880 O.2   133  TRP133     -0.2864
     71  CB        94.1300   83.2170   40.0130 C.3   133  TRP133      0.0576
     72  CG        94.5290   81.8930   40.5750 C.ar  133  TRP133      0.0006
     73  CD1       95.4220   81.6620   41.5860 C.ar  133  TRP133      0.0946
     74  CD2       94.0640   80.6130   40.1460 C.ar  133  TRP133      0.0152
     75  NE1       95.5340   80.3120   41.8160 N.ar  133  TRP133     -0.2442
     76  CE2       94.7130   79.6440   40.9460 C.ar  133  TRP133      0.0810
     77  CE3       93.1530   80.1880   39.1660 C.ar  133  TRP133      0.0012
     78  CZ2       94.4840   78.2740   40.7970 C.ar  133  TRP133      0.0191
     79  CZ3       92.9270   78.8270   39.0070 C.ar  133  TRP133      0.0001
     80  CH2       93.5910   77.8830   39.8200 C.ar  133  TRP133      0.0015
     81  N         95.7120   80.3910   46.9530 N.3   139  TRP139     -0.1241
     82  CA        94.4330   80.8570   46.4310 C.3   139  TRP139      0.1605
     83  C         93.3940   79.7290   46.3860 C.2   139  TRP139      0.2264
     84  O         92.2500   79.9390   45.9880 O.2   139  TRP139     -0.2867
     85  CB        94.6660   81.4300   45.0290 C.3   139  TRP139      0.0550
     86  CG        93.4900   82.0910   44.3600 C.ar  139  TRP139      0.0003
     87  CD1       92.8060   81.6290   43.2780 C.ar  139  TRP139      0.0946
     88  CD2       92.8840   83.3400   44.7100 C.ar  139  TRP139      0.0152
     89  NE1       91.8110   82.5080   42.9230 N.ar  139  TRP139     -0.2442
     90  CE2       91.8300   83.5660   43.7880 C.ar  139  TRP139      0.0810
     91  CE3       93.1250   84.2930   45.7130 C.ar  139  TRP139      0.0012
     92  CZ2       91.0150   84.7020   43.8370 C.ar  139  TRP139      0.0191
     93  CZ3       92.3130   85.4320   45.7610 C.ar  139  TRP139      0.0001
     94  CH2       91.2690   85.6220   44.8250 C.ar  139  TRP139      0.0015
     95  N         97.9100   83.1100   32.7030 N.3   172  GLU172     -0.1245
     96  CA        97.6010   82.0920   31.6990 C.3   172  GLU172      0.1567
     97  C         98.7850   81.9230   30.7740 C.2   172  GLU172      0.2260
     98  O         98.6200   81.8260   29.5580 O.2   172  GLU172     -0.2867
     99  CB        96.3330   82.4320   30.8960 C.3   172  GLU172      0.0388
    100  CG        95.2580   83.1470   31.7160 C.3   172  GLU172      0.1160
    101  CD        93.8270   82.8930   31.2450 C.2   172  GLU172      0.3649
    102  OE1       93.5090   83.2040   30.0750 O.co2 172  GLU172     -0.2457
    103  OE2       93.0100   82.4050   32.0690 O.co2 172  GLU172     -0.2457
    104  N         87.7440   78.2650   44.2820 N.3   236  VAL236     -0.1231
    105  CA        87.9160   79.2280   43.1810 C.3   236  VAL236      0.1692
    106  C         86.6080   79.4320   42.4170 C.2   236  VAL236      0.2592
    107  O         86.0920   80.5400   42.3240 O.2   236  VAL236     -0.2718
    108  CB        89.0680   78.8380   42.2070 C.3   236  VAL236      0.0266
    109  CG1       89.0040   79.6640   40.9280 C.3   236  VAL236      0.0020
    110  CG2       90.4060   79.0210   42.8690 C.3   236  VAL236      0.0020
    111  N         86.1070   78.3460   41.8470 N.am  237  TRP237     -0.1962
    112  CA        84.7450   78.2480   41.3430 C.3   237  TRP237      0.1771
    113  C         84.0150   77.8860   42.6000 C.2   237  TRP237      0.2619
    114  O         84.6520   77.5340   43.5920 O.2   237  TRP237     -0.2715
    115  CB        84.6870   77.1010   40.3390 C.3   237  TRP237      0.0590
    116  CG        85.8990   77.1500   39.4630 C.ar  237  TRP237      0.0006
    117  CD1       87.0430   76.4080   39.5880 C.ar  237  TRP237      0.0946
    118  CD2       86.1270   78.0620   38.3870 C.ar  237  TRP237      0.0152
    119  NE1       87.9550   76.7870   38.6320 N.ar  237  TRP237     -0.2442
    120  CE2       87.4170   77.7980   37.8810 C.ar  237  TRP237      0.0810
    121  CE3       85.3560   79.0720   37.7900 C.ar  237  TRP237      0.0012
    122  CZ2       87.9510   78.4920   36.8020 C.ar  237  TRP237      0.0191
    123  CZ3       85.8920   79.7730   36.7150 C.ar  237  TRP237      0.0001
    124  CH2       87.1770   79.4790   36.2340 C.ar  237  TRP237      0.0015
    125  N         82.7050   77.9610   42.6370 N.am  238  GLU238     -0.1977
    126  CA        82.1280   77.5280   43.8900 C.3   238  GLU238      0.1602
    127  C         81.2120   76.3740   43.6230 C.2   238  GLU238      0.2287
    128  O         79.9900   76.5150   43.5520 O.2   238  GLU238     -0.2864
    129  CB        81.4950   78.6910   44.6360 C.3   238  GLU238      0.0415
    130  CG        82.5380   79.7230   45.0690 C.3   238  GLU238      0.1163
    131  CD        81.9550   81.1010   45.2890 C.2   238  GLU238      0.3649
    132  OE1       80.9620   81.4640   44.6140 O.co2 238  GLU238     -0.2457
    133  OE2       82.4940   81.8250   46.1470 O.co2 238  GLU238     -0.2457
@<TRIPOS>BOND
     1    46    45    2
     2    45    44    1
     3    43    44    1
     4    47    44    1
     5    47    48    1
     6    49    48    1
     7    49    50    1
     8    51    50    1
     9    98    97    2
    10   102   101   ar
    11    97    96    1
    12    99    96    1
    13    99   100    1
    14   101   100    1
    15   101   103   ar
    16    42    41    1
    17    28    27    2
    18    96    95    1
    19    21    22    1
    20    36    35    1
    21    36    37    2
    22    35    38    1
    23    35    34    1
    24    22    23    1
    25    39    38    1
    26    39    40    1
    27    27    34   am
    28    27    26    1
    29    41    40    1
    30    23    25   am
    31    23    24    2
    32    25    26    1
    33    26    29    1
    34    29    30    1
    35    32    31   ar
    36    64    63    1
    37    64    65    1
    38    30    31    1
    39    52    53    1
    40    63    54   am
    41    31    33   ar
    42    54    53    1
    43    54    55    2
    44    53    56    1
    45   124   123   ar
    46   124   122   ar
    47    66    65    2
    48    65    67   am
    49   123   121   ar
    50   122   120   ar
    51    56    57    1
    52    67    68    1
    53   121   118   ar
    54   120   118   ar
    55   120   119   ar
    56    13    12    2
    57    57    58    1
    58    12    11    1
    59   118   116   ar
    60    58    59    1
    61   119   117   ar
    62    68    69    1
    63    68    71    1
    64    79    77   ar
    65    79    80   ar
    66    77    74   ar
    67    70    69    2
    68     4     3    2
    69   116   117   ar
    70   116   115    1
    71     5     6    1
    72     5     2    1
    73    11    10    1
    74    11    14    1
    75    59    60    2
    76    80    78   ar
    77     3    10   am
    78     3     2    1
    79    71    72    1
    80     6     7    1
    81    74    72   ar
    82    74    76   ar
    83   115   112    1
    84     2     1    1
    85    72    73   ar
    86    14    15    1
    87     7     8    1
    88    61    60    1
    89    78    76   ar
    90    60    62    1
    91   109   108    1
    92    76    75   ar
    93   112   111    1
    94   112   113    1
    95    73    75   ar
    96    15    16    1
    97   111   106   am
    98     9     8    1
    99   108   110    1
   100   108   105    1
   101   107   106    2
   102   106   105    1
   103   113   125   am
   104   113   114    2
   105   125   126    1
   106    89    87   ar
   107    89    90   ar
   108    19    18    1
   109    16    17    1
   110   105   104    1
   111    87    86   ar
   112   128   127    2
   113   127   126    1
   114    18    17    2
   115    18    20    1
   116    90    92   ar
   117    90    88   ar
   118    92    94   ar
   119   126   129    1
   120    86    88   ar
   121    86    85    1
   122   132   131   ar
   123   129   130    1
   124    88    91   ar
   125    94    93   ar
   126    85    82    1
   127   130   131    1
   128   131   133   ar
   129    91    93   ar
   130    84    83    2
   131    83    82    1
   132    82    81    1
