@<TRIPOS>MOLECULE
tmp/1y56B01.pdb
 168 164 0 0 0
SMALL
GASTEIGER

@<TRIPOS>ATOM
      1  N        121.7650   54.0500   19.9340 N.3    43  THR43      -0.1203
      2  CA       120.6800   53.1050   19.7590 C.3    43  THR43       0.1994
      3  C        119.4710   53.4370   20.6490 C.2    43  THR43       0.2618
      4  O        118.3210   53.2640   20.2540 O.2    43  THR43      -0.2717
      5  CB       121.2000   51.6920   20.0490 C.3    43  THR43       0.1784
      6  OG1      122.3490   51.4500   19.2250 O.3    43  THR43      -0.2211
      7  CG2      120.1380   50.6250   19.7710 C.3    43  THR43       0.0376
      8  N        119.7350   53.9320   21.8450 N.am   44  PHE44      -0.1961
      9  CA       118.6660   54.3000   22.7450 C.3    44  PHE44       0.1771
     10  C        117.9960   55.6140   22.3550 C.2    44  PHE44       0.2619
     11  O        116.8760   55.8920   22.7710 O.2    44  PHE44      -0.2715
     12  CB       119.2080   54.3890   24.1680 C.3    44  PHE44       0.0574
     13  CG       118.1570   54.2910   25.2150 C.ar   44  PHE44      -0.0200
     14  CD1      117.5890   53.0590   25.5320 C.ar   44  PHE44      -0.0042
     15  CD2      117.7250   55.4320   25.8890 C.ar   44  PHE44      -0.0042
     16  CE1      116.5940   52.9620   26.5210 C.ar   44  PHE44      -0.0003
     17  CE2      116.7390   55.3570   26.8750 C.ar   44  PHE44      -0.0003
     18  CZ       116.1690   54.1190   27.1980 C.ar   44  PHE44      -0.0000
     19  N        118.6900   56.4200   21.5590 N.am   45  ARG45      -0.1963
     20  CA       118.2240   57.7640   21.2060 C.3    45  ARG45       0.1729
     21  C        117.8000   57.8370   19.7410 C.2    45  ARG45       0.2616
     22  O        117.3550   58.8760   19.2410 O.2    45  ARG45      -0.2715
     23  CB       119.3230   58.7780   21.5180 C.3    45  ARG45       0.0348
     24  CG       119.4410   59.0580   22.9860 C.3    45  ARG45       0.0492
     25  CD       120.8820   59.1010   23.4620 C.3    45  ARG45       0.2205
     26  NE       120.9580   59.0590   24.9300 N.pl3  45  ARG45      -0.0865
     27  CZ       120.6100   60.0590   25.7530 C.cat  45  ARG45       0.5346
     28  NH1      120.7190   59.9000   27.0640 N.pl3  45  ARG45       0.1354
     29  NH2      120.1540   61.2160   25.2830 N.pl3  45  ARG45       0.1354
     30  N        117.9070   56.6850   19.0930 N.am   46  CYS46      -0.1968
     31  CA       117.7610   56.5100   17.6640 C.3    46  CYS46       0.1712
     32  C        116.3390   56.6730   17.1400 C.2    46  CYS46       0.2296
     33  O        115.3610   56.3990   17.8470 O.2    46  CYS46      -0.2864
     34  CB       118.2510   55.1100   17.3330 C.3    46  CYS46       0.0983
     35  SG       118.2200   54.7340   15.6060 S.3    46  CYS46      -0.0798
     36  N        113.6640   55.6030   13.7670 N.3    48  THR48      -0.1218
     37  CA       113.2060   54.2430   13.4830 C.3    48  THR48       0.1862
     38  C        113.6770   53.6020   12.1430 C.2    48  THR48       0.2287
     39  O        112.9310   52.8330   11.5540 O.2    48  THR48      -0.2866
     40  CB       111.6610   54.0390   13.8060 C.3    48  THR48       0.1770
     41  OG1      110.8750   55.0730   13.2070 O.3    48  THR48      -0.2211
     42  CG2      111.3960   54.0480   15.3110 C.3    48  THR48       0.0375
     43  N        111.5900   49.5700   16.1870 N.3   146  ASP146     -0.1225
     44  CA       112.0570   50.1940   17.4280 C.3   146  ASP146      0.1790
     45  C        113.4700   49.7200   17.7800 C.2   146  ASP146      0.2439
     46  O        113.6760   48.5340   18.0770 O.2   146  ASP146     -0.2733
     47  CB       111.0970   49.9380   18.5910 C.3   146  ASP146      0.1423
     48  CG       111.5480   50.6150   19.8840 C.2   146  ASP146      0.3668
     49  OD1      112.1470   49.9190   20.7440 O.co2 146  ASP146     -0.2456
     50  OD2      111.3190   51.8450   20.0360 O.co2 146  ASP146     -0.2456
     51  N        114.4540   50.6480   17.7500 N.am  147  PRO147     -0.2729
     52  CA       115.8320   50.2240   17.9460 C.3   147  PRO147      0.1401
     53  C        116.0480   49.5230   19.2750 C.2   147  PRO147      0.2269
     54  O        116.8660   48.6060   19.3430 O.2   147  PRO147     -0.2865
     55  CB       116.6150   51.5350   17.8680 C.3   147  PRO147      0.0296
     56  CG       115.7630   52.4020   17.0410 C.3   147  PRO147      0.0237
     57  CD       114.3820   52.0990   17.5130 C.3   147  PRO147      0.0939
     58  N        109.1490   64.4630   19.8210 N.3   228  ILE228     -0.1231
     59  CA       108.0230   63.5370   19.8100 C.3   228  ILE228      0.1692
     60  C        106.7500   64.3310   20.0950 C.2   228  ILE228      0.2592
     61  O        106.7280   65.1910   20.9820 O.2   228  ILE228     -0.2718
     62  CB       108.2080   62.3600   20.8280 C.3   228  ILE228      0.0266
     63  CG1      107.0890   61.3350   20.6940 C.3   228  ILE228      0.0019
     64  CG2      108.2890   62.8670   22.2900 C.3   228  ILE228      0.0020
     65  CD1      107.1120   60.6170   19.4060 C.3   228  ILE228      0.0001
     66  N        105.6970   64.0660   19.3320 N.am  229  THR229     -0.1953
     67  CA       104.4220   64.7170   19.5950 C.3   229  THR229      0.1897
     68  C        103.5270   63.8050   20.4250 C.2   229  THR229      0.2313
     69  O        103.9120   62.6880   20.7750 O.2   229  THR229     -0.2863
     70  CB       103.6970   65.1100   18.3040 C.3   229  THR229      0.1794
     71  OG1      102.8990   64.0130   17.8500 O.3   229  THR229     -0.2208
     72  CG2      104.6790   65.4860   17.2210 C.3   229  THR229      0.0378
     73  N        105.3720   56.6690   15.4150 N.3   254  THR254     -0.1218
     74  CA       105.8350   55.5080   16.1740 C.3   254  THR254      0.1862
     75  C        104.7150   54.4770   16.3270 C.2   254  THR254      0.2287
     76  O        103.5310   54.7540   16.0430 O.2   254  THR254     -0.2866
     77  CB       106.3310   55.8790   17.5800 C.3   254  THR254      0.1770
     78  OG1      105.2510   56.4330   18.3340 O.3   254  THR254     -0.2211
     79  CG2      107.4670   56.8660   17.5160 C.3   254  THR254      0.0375
     80  N        103.7160   53.4090   19.1870 N.3   256  HIS256     -0.1241
     81  CA       102.8530   54.0030   20.2150 C.3   256  HIS256      0.1621
     82  C        101.8350   55.0360   19.6570 C.2   256  HIS256      0.2264
     83  O        100.7780   55.2340   20.2490 O.2   256  HIS256     -0.2867
     84  CB       103.6980   54.6110   21.3550 C.3   256  HIS256      0.0745
     85  CG       102.8860   55.1590   22.4940 C.ar  256  HIS256      0.0817
     86  ND1      102.5110   54.3940   23.5800 N.ar  256  HIS256     -0.2268
     87  CD2      102.3690   56.3930   22.7110 C.ar  256  HIS256      0.1154
     88  CE1      101.8030   55.1320   24.4190 C.ar  256  HIS256      0.1986
     89  NE2      101.7050   56.3510   23.9160 N.ar  256  HIS256     -0.2212
     90  N        103.1060   58.2060   18.1470 N.3   258  GLY258     -0.1225
     91  CA       103.7300   59.4730   18.4520 C.3   258  GLY258      0.1811
     92  C        103.9760   60.4860   17.3580 C.2   258  GLY258      0.2280
     93  O        103.6920   61.6630   17.5290 O.2   258  GLY258     -0.2866
     94  N        107.4910   61.0300   15.4800 N.3   260  ILE260     -0.1245
     95  CA       108.8170   61.2770   15.9490 C.3   260  ILE260      0.1561
     96  C        109.5620   61.8750   14.7650 C.2   260  ILE260      0.2260
     97  O        109.1730   61.6690   13.6220 O.2   260  ILE260     -0.2867
     98  CB       109.4590   59.9370   16.4080 C.3   260  ILE260      0.0252
     99  CG1      110.8070   60.1740   17.1080 C.3   260  ILE260      0.0019
    100  CG2      109.5500   58.9280   15.2360 C.3   260  ILE260      0.0019
    101  CD1      111.4100   58.9280   17.7440 C.3   260  ILE260      0.0001
    102  N        124.8300   66.1820   25.4010 N.3   273  LEU273     -0.1231
    103  CA       123.4470   65.9660   24.9690 C.3   273  LEU273      0.1693
    104  C        122.6520   67.2410   25.2900 C.2   273  LEU273      0.2593
    105  O        123.1440   68.3480   25.0170 O.2   273  LEU273     -0.2718
    106  CB       122.8460   64.6860   25.5530 C.3   273  LEU273      0.0284
    107  CG       123.3030   63.3490   24.9130 C.3   273  LEU273      0.0019
    108  CD1      123.8280   63.5250   23.4830 C.3   273  LEU273      0.0001
    109  CD2      124.3160   62.5570   25.7480 C.3   273  LEU273      0.0001
    110  N        121.4590   67.1280   25.8630 N.am  274  THR274     -0.1940
    111  CA       120.6700   68.3470   26.2150 C.3   274  THR274      0.2013
    112  C        120.1510   69.1540   24.9970 C.2   274  THR274      0.2484
    113  O        120.9180   69.7840   24.2540 O.2   274  THR274     -0.2729
    114  CB       121.3650   69.3270   27.2700 C.3   274  THR274      0.1807
    115  OG1      122.3520   70.1280   26.6250 O.3   274  THR274     -0.2208
    116  CG2      122.0090   68.5650   28.4570 C.3   274  THR274      0.0379
    117  N        118.8330   69.1080   24.7840 N.am  275  PRO275     -0.2726
    118  CA       118.2110   69.7600   23.6480 C.3   275  PRO275      0.1402
    119  C        118.2930   71.2850   23.6830 C.2   275  PRO275      0.2269
    120  O        118.5680   71.8680   24.7230 O.2   275  PRO275     -0.2865
    121  CB       116.7610   69.2860   23.7310 C.3   275  PRO275      0.0296
    122  CG       116.5690   68.8320   25.1110 C.3   275  PRO275      0.0237
    123  CD       117.8650   68.3590   25.6010 C.3   275  PRO275      0.0939
    124  N        105.5880   67.0240   23.1710 N.3   300  LEU300     -0.1231
    125  CA       105.6960   66.5100   24.5410 C.3   300  LEU300      0.1693
    126  C        107.0870   66.6320   25.1300 C.2   300  LEU300      0.2592
    127  O        107.2410   67.0710   26.2640 O.2   300  LEU300     -0.2718
    128  CB       105.2500   65.0500   24.6210 C.3   300  LEU300      0.0284
    129  CG       103.7620   64.7820   24.3980 C.3   300  LEU300      0.0019
    130  CD1      103.4670   63.3050   24.5840 C.3   300  LEU300      0.0001
    131  CD2      102.8860   65.6340   25.3100 C.3   300  LEU300      0.0001
    132  N        108.0880   66.2330   24.3520 N.am  301  ARG301     -0.1966
    133  CA       109.4790   66.1970   24.7760 C.3   301  ARG301      0.1729
    134  C        110.3810   66.3140   23.5460 C.2   301  ARG301      0.2617
    135  O        109.9590   66.0760   22.4110 O.2   301  ARG301     -0.2715
    136  CB       109.7730   64.8950   25.5530 C.3   301  ARG301      0.0348
    137  CG       111.2690   64.5780   25.8060 C.3   301  ARG301      0.0492
    138  CD       111.4820   63.3180   26.6690 C.3   301  ARG301      0.2205
    139  NE       111.3540   63.6450   28.0850 N.pl3 301  ARG301     -0.0865
    140  CZ       112.3320   63.5800   28.9900 C.cat 301  ARG301      0.5346
    141  NH1      112.0760   63.9270   30.2470 N.pl3 301  ARG301      0.1354
    142  NH2      113.5500   63.1600   28.6610 N.pl3 301  ARG301      0.1354
    143  N        111.6290   66.6860   23.8040 N.am  302  THR302     -0.1937
    144  CA       112.6740   66.7880   22.8040 C.3   302  THR302      0.2028
    145  C        113.9010   66.1180   23.4080 C.2   302  THR302      0.2642
    146  O        114.0920   66.1940   24.6220 O.2   302  THR302     -0.2714
    147  CB       112.9700   68.2600   22.5470 C.3   302  THR302      0.1808
    148  OG1      111.9710   68.7850   21.6690 O.3   302  THR302     -0.2208
    149  CG2      114.3150   68.4480   21.9030 C.3   302  THR302      0.0379
    150  N        114.7170   65.4460   22.5940 N.am  303  TRP303     -0.1959
    151  CA       115.9760   64.8930   23.0990 C.3   303  TRP303      0.1771
    152  C        117.1320   64.9690   22.0910 C.2   303  TRP303      0.2619
    153  O        116.9540   65.4590   20.9730 O.2   303  TRP303     -0.2715
    154  CB       115.7870   63.4640   23.6180 C.3   303  TRP303      0.0590
    155  CG       115.5350   62.4700   22.5530 C.ar  303  TRP303      0.0006
    156  CD1      116.4450   61.6400   21.9810 C.ar  303  TRP303      0.0946
    157  CD2      114.2890   62.1950   21.9300 C.ar  303  TRP303      0.0152
    158  NE1      115.8440   60.8660   21.0270 N.ar  303  TRP303     -0.2442
    159  CE2      114.5150   61.1860   20.9770 C.ar  303  TRP303      0.0810
    160  CE3      112.9940   62.7060   22.0820 C.ar  303  TRP303      0.0012
    161  CZ2      113.4970   60.6690   20.1820 C.ar  303  TRP303      0.0191
    162  CZ3      111.9880   62.2030   21.2880 C.ar  303  TRP303      0.0001
    163  CH2      112.2440   61.1900   20.3520 C.ar  303  TRP303      0.0015
    164  N        118.3070   64.4900   22.5030 N.am  304  ALA304     -0.1977
    165  CA       119.4990   64.5180   21.6660 C.3   304  ALA304      0.1597
    166  C        120.2760   63.1980   21.6990 C.2   304  ALA304      0.2287
    167  O        120.1080   62.3780   22.6090 O.2   304  ALA304     -0.2864
    168  CB       120.4070   65.6700   22.0820 C.3   304  ALA304      0.0319
@<TRIPOS>BOND
     1    39    38    2
     2    38    37    1
     3    41    40    1
     4    37    36    1
     5    37    40    1
     6    97    96    2
     7    40    42    1
     8    96    95    1
     9   100    98    1
    10    73    74    1
    11    94    95    1
    12    35    34    1
    13    95    98    1
    14    76    75    2
    15    74    75    1
    16    74    77    1
    17    43    44    1
    18    98    99    1
    19    56    57    1
    20    56    55    1
    21    99   101    1
    22    32    31    1
    23    32    33    2
    24    72    70    1
    25    34    31    1
    26    92    93    2
    27    92    91    1
    28    44    45    1
    29    44    47    1
    30    57    51    1
    31    79    77    1
    32    77    78    1
    33    31    30    1
    34    51    45   am
    35    51    52    1
    36    45    46    2
    37    71    70    1
    38    55    52    1
    39    52    53    1
    40    90    91    1
    41    70    67    1
    42    47    48    1
    43    30    21   am
    44    80    81    1
    45     6     5    1
    46    22    21    2
    47    53    54    2
    48    66    67    1
    49    66    60   am
    50    65    63    1
    51    67    68    1
    52    82    81    1
    53    82    83    2
    54    21    20    1
    55     2     1    1
    56     2     5    1
    57     2     3    1
    58     7     5    1
    59    59    58    1
    60    59    60    1
    61    59    62    1
    62    48    50   ar
    63    48    49   ar
    64    60    61    2
    65   161   163   ar
    66   161   159   ar
    67    81    84    1
    68     4     3    2
    69   163   162   ar
    70    68    69    2
    71     3     8   am
    72    63    62    1
    73    62    64    1
    74   153   152    2
    75   159   158   ar
    76   159   157   ar
    77   158   156   ar
    78    20    23    1
    79    20    19    1
    80   162   160   ar
    81    84    85    1
    82    23    24    1
    83    19    10   am
    84   165   166    1
    85   165   168    1
    86   165   164    1
    87   148   147    1
    88   166   167    2
    89     8     9    1
    90   149   147    1
    91   157   160   ar
    92   157   155   ar
    93   156   155   ar
    94   152   164   am
    95   152   151    1
    96    10     9    1
    97    10    11    2
    98   135   134    2
    99    85    87   ar
   100    85    86   ar
   101   147   144    1
   102   155   154    1
   103   150   151    1
   104   150   145   am
   105    87    89   ar
   106     9    12    1
   107   144   145    1
   108   144   143    1
   109    24    25    1
   110   151   154    1
   111   124   125    1
   112   145   146    2
   113    25    26    1
   114   108   107    1
   115   134   143   am
   116   134   133    1
   117    86    88   ar
   118   118   119    1
   119   118   121    1
   120   118   117    1
   121   119   120    2
   122   121   122    1
   123    89    88   ar
   124    12    13    1
   125   113   112    2
   126   132   133    1
   127   132   126   am
   128   129   130    1
   129   129   128    1
   130   129   131    1
   131   125   128    1
   132   125   126    1
   133   133   136    1
   134   117   112   am
   135   117   123    1
   136   107   106    1
   137   107   109    1
   138    26    27    2
   139   103   104    1
   140   103   102    1
   141   103   106    1
   142   112   111    1
   143   105   104    2
   144   122   123    1
   145   126   127    2
   146    13    14   ar
   147    13    15   ar
   148    29    27    1
   149   104   110   am
   150    14    16   ar
   151   136   137    1
   152    27    28    1
   153   137   138    1
   154   110   111    1
   155    15    17   ar
   156   111   114    1
   157    16    18   ar
   158   115   114    1
   159   138   139    1
   160    17    18   ar
   161   114   116    1
   162   139   140    2
   163   142   140    1
   164   140   141    1
