@<TRIPOS>MOLECULE
tmp/1y56A00.pdb
 86 81 0 0 0
SMALL
GASTEIGER

@<TRIPOS>ATOM
      1  N        115.2460   54.4530   33.4390 N.3   428  GLN428     -0.1245
      2  CA       115.4720   54.7920   32.0490 C.3   428  GLN428      0.1566
      3  C        114.8170   53.7030   31.1880 C.2   428  GLN428      0.2260
      4  O        114.0770   54.0050   30.2530 O.2   428  GLN428     -0.2867
      5  CB       116.9790   54.8700   31.7980 C.3   428  GLN428      0.0367
      6  CG       117.4490   56.0490   30.9730 C.3   428  GLN428      0.0905
      7  CD       117.0150   57.3880   31.5470 C.2   428  GLN428      0.2608
      8  OE1      117.2260   57.6730   32.7300 O.2   428  GLN428     -0.2717
      9  NE2      116.4040   58.2240   30.7030 N.am  428  GLN428     -0.0878
     10  N        110.9420   53.3810   31.8290 N.3   431  LYS431     -0.1231
     11  CA       110.3360   54.4540   31.0470 C.3   431  LYS431      0.1693
     12  C        110.0380   54.0230   29.6190 C.2   431  LYS431      0.2591
     13  O        109.0020   54.3800   29.0600 O.2   431  LYS431     -0.2718
     14  CB       111.2660   55.6610   30.9930 C.3   431  LYS431      0.0285
     15  CG       110.8090   56.8380   31.8040 C.3   431  LYS431      0.0035
     16  CD       111.6910   58.0590   31.5570 C.3   431  LYS431      0.0206
     17  CE       111.2760   58.8310   30.3370 C.3   431  LYS431      0.1093
     18  NZ       112.2270   59.9390   30.1130 N.3   431  LYS431     -0.1314
     19  N        110.9590   53.2690   29.0280 N.am  432  ARG432     -0.1980
     20  CA       110.8620   52.9250   27.6200 C.3   432  ARG432      0.1597
     21  C        109.9870   51.7000   27.3920 C.2   432  ARG432      0.2287
     22  O        109.2080   51.6730   26.4470 O.2   432  ARG432     -0.2864
     23  CB       112.2580   52.7420   27.0180 C.3   432  ARG432      0.0334
     24  CG       112.2830   52.3760   25.5540 C.3   432  ARG432      0.0492
     25  CD       111.9710   53.5480   24.6320 C.3   432  ARG432      0.2205
     26  NE       113.0380   53.6210   23.6400 N.pl3 432  ARG432     -0.0865
     27  CZ       114.0430   54.5050   23.6560 C.cat 432  ARG432      0.5346
     28  NH1      114.1130   55.4760   24.5770 N.pl3 432  ARG432      0.1354
     29  NH2      114.9760   54.4280   22.7130 N.pl3 432  ARG432      0.1354
     30  N        105.2390   52.7370   29.1080 N.3   435  HIS435     -0.1241
     31  CA       105.3930   54.1550   28.7440 C.3   435  HIS435      0.1621
     32  C        105.3370   55.1160   29.9350 C.2   435  HIS435      0.2264
     33  O        104.9020   56.2530   29.7920 O.2   435  HIS435     -0.2867
     34  CB       104.3820   54.5630   27.6790 C.3   435  HIS435      0.0745
     35  CG       104.9990   54.8580   26.3520 C.ar  435  HIS435      0.0817
     36  ND1      104.8400   56.0750   25.7120 N.ar  435  HIS435     -0.2268
     37  CD2      105.7890   54.1030   25.5460 C.ar  435  HIS435      0.1154
     38  CE1      105.5000   56.0510   24.5640 C.ar  435  HIS435      0.1986
     39  NE2      106.0840   54.8680   24.4400 N.ar  435  HIS435     -0.2212
     40  N        105.9630   57.8910   32.4510 N.3   437  ALA437     -0.1231
     41  CA       106.6000   59.2240   32.3460 C.3   437  ALA437      0.1694
     42  C        106.8500   59.7310   30.9040 C.2   437  ALA437      0.2591
     43  O        107.6630   60.6290   30.6820 O.2   437  ALA437     -0.2718
     44  CB       107.8940   59.2820   33.1900 C.3   437  ALA437      0.0304
     45  N        106.1490   59.1450   29.9370 N.am  438  MET438     -0.1979
     46  CA       106.2160   59.5630   28.5320 C.3   438  MET438      0.1605
     47  C        104.8700   60.1760   28.1050 C.2   438  MET438      0.2287
     48  O        104.6300   60.4830   26.9350 O.2   438  MET438     -0.2864
     49  CB       106.5300   58.3620   27.6280 C.3   438  MET438      0.0413
     50  CG       107.4650   57.3340   28.2260 C.3   438  MET438      0.0598
     51  SD       109.1180   57.3390   27.5290 S.3   438  MET438     -0.1393
     52  CE       108.8660   56.4000   26.0160 C.3   438  MET438      0.0692
     53  N        104.9220   64.0170   31.5770 N.3   442  GLN442     -0.1245
     54  CA       106.3730   64.0140   31.7550 C.3   442  GLN442      0.1566
     55  C        106.7990   63.5040   33.1510 C.2   442  GLN442      0.2260
     56  O        107.8160   63.9370   33.7100 O.2   442  GLN442     -0.2867
     57  CB       106.9300   65.4300   31.4990 C.3   442  GLN442      0.0367
     58  CG       106.9400   65.8100   30.0340 C.3   442  GLN442      0.0905
     59  CD       107.6750   64.7780   29.2110 C.2   442  GLN442      0.2608
     60  OE1      108.8820   64.5740   29.3840 O.2   442  GLN442     -0.2717
     61  NE2      106.9560   64.0950   28.3370 N.am  442  GLN442     -0.0878
     62  N        115.3130   60.0630   35.8450 N.3   468  PRO468     -0.2102
     63  CA       115.2830   60.6480   34.5040 C.3   468  PRO468      0.1504
     64  C        114.9500   62.1390   34.5420 C.2   468  PRO468      0.2575
     65  O        113.9850   62.5550   35.1930 O.2   468  PRO468     -0.2718
     66  CB       114.1710   59.8590   33.8060 C.3   468  PRO468      0.0282
     67  CG       114.2460   58.5280   34.4230 C.3   468  PRO468      0.0208
     68  CD       114.6960   58.7230   35.8600 C.3   468  PRO468      0.0893
     69  N        115.7630   62.9240   33.8460 N.am  469  VAL469     -0.1980
     70  CA       115.7310   64.3810   33.9120 C.3   469  VAL469      0.1595
     71  C        114.6430   64.9490   32.9880 C.2   469  VAL469      0.2287
     72  O        114.2790   64.3160   31.9980 O.2   469  VAL469     -0.2864
     73  CB       117.1170   64.9210   33.5380 C.3   469  VAL469      0.0276
     74  CG1      117.4400   64.6040   32.0660 C.3   469  VAL469      0.0022
     75  CG2      117.2230   66.3940   33.8070 C.3   469  VAL469      0.0022
     76  N        113.1820   67.3610   30.0900 N.3   471  ARG471     -0.1245
     77  CA       113.7590   67.8060   28.8190 C.3   471  ARG471      0.1563
     78  C        113.0200   68.9830   28.1730 C.2   471  ARG471      0.2260
     79  O        112.2330   69.6530   28.8270 O.2   471  ARG471     -0.2867
     80  CB       113.8950   66.6270   27.8540 C.3   471  ARG471      0.0307
     81  CG       115.3270   66.1850   27.6200 C.3   471  ARG471      0.0489
     82  CD       115.9680   65.5710   28.8480 C.3   471  ARG471      0.2205
     83  NE       117.4090   65.3340   28.7010 N.pl3 471  ARG471     -0.0865
     84  CZ       118.3370   66.2890   28.7610 C.cat 471  ARG471      0.5346
     85  NH1      117.9860   67.5540   28.9350 N.pl3 471  ARG471      0.1354
     86  NH2      119.6210   65.9900   28.6390 N.pl3 471  ARG471      0.1354
@<TRIPOS>BOND
     1    29    27    1
     2    26    27    2
     3    26    25    1
     4    27    28    1
     5    39    38   ar
     6    39    37   ar
     7    38    36   ar
     8    25    24    1
     9    37    35   ar
    10    24    23    1
    11    36    35   ar
    12    52    51    1
    13    35    34    1
    14    22    21    2
    15    48    47    2
    16    23    20    1
    17    21    20    1
    18    51    50    1
    19    20    19    1
    20    81    80    1
    21    81    82    1
    22    49    50    1
    23    49    46    1
    24    34    31    1
    25    80    77    1
    26    47    46    1
    27    78    77    1
    28    78    79    2
    29    61    59   am
    30    46    45    1
    31    86    84    1
    32    83    84    2
    33    83    82    1
    34    31    30    1
    35    31    32    1
    36    84    85    1
    37    77    76    1
    38    19    12   am
    39    13    12    2
    40    59    60    2
    41    59    58    1
    42    12    11    1
    43    33    32    2
    44    45    42   am
    45    58    57    1
    46    18    17    1
    47     4     3    2
    48    17    16    1
    49    43    42    2
    50     9     7   am
    51    42    41    1
    52     6     7    1
    53     6     5    1
    54    14    11    1
    55    14    15    1
    56    11    10    1
    57     3     2    1
    58    57    54    1
    59     7     8    2
    60    16    15    1
    61    53    54    1
    62    54    55    1
    63     5     2    1
    64    72    71    2
    65     2     1    1
    66    74    73    1
    67    41    40    1
    68    41    44    1
    69    71    70    1
    70    55    56    2
    71    73    75    1
    72    73    70    1
    73    66    67    1
    74    66    63    1
    75    69    70    1
    76    69    64   am
    77    67    68    1
    78    63    64    1
    79    63    62    1
    80    64    65    2
    81    62    68    1
