@<TRIPOS>MOLECULE
tmp/1y57A00.pdb
 152 143 0 0 0
SMALL
GASTEIGER

@<TRIPOS>ATOM
      1  N         22.3190   38.2000   44.7030 N.3   192  LEU192     -0.1231
      2  CA        22.4070   37.4010   43.4840 C.3   192  LEU192      0.1693
      3  C         22.1140   38.2450   42.2610 C.2   192  LEU192      0.2593
      4  O         22.6870   38.0190   41.1910 O.2   192  LEU192     -0.2718
      5  CB        21.4310   36.2260   43.5390 C.3   192  LEU192      0.0284
      6  CG        21.6270   35.2760   44.7160 C.3   192  LEU192      0.0019
      7  CD1       20.4930   34.2640   44.7930 C.3   192  LEU192      0.0001
      8  CD2       22.9620   34.5810   44.6320 C.3   192  LEU192      0.0001
      9  N         21.2500   39.2380   42.4180 N.am  193  GLY193     -0.1942
     10  CA        20.9460   40.1430   41.3230 C.3   193  GLY193      0.2014
     11  C         19.9670   41.2460   41.6720 C.2   193  GLY193      0.2639
     12  O         19.4270   41.2970   42.7770 O.2   193  GLY193     -0.2714
     13  N         19.7400   42.1300   40.7060 N.am  194  GLN194     -0.1963
     14  CA        18.8330   43.2540   40.8730 C.3   194  GLN194      0.1733
     15  C         18.3240   43.7900   39.5390 C.2   194  GLN194      0.2616
     16  O         18.9340   43.5810   38.4760 O.2   194  GLN194     -0.2715
     17  CB        19.5170   44.3780   41.6530 C.3   194  GLN194      0.0408
     18  CG        20.6040   45.1320   40.8750 C.3   194  GLN194      0.0908
     19  CD        21.5110   45.9560   41.7680 C.2   194  GLN194      0.2608
     20  OE1       22.6770   45.6040   41.9680 O.2   194  GLN194     -0.2717
     21  NE2       20.9920   47.0600   42.2950 N.am  194  GLN194     -0.0878
     22  N         17.2180   44.5140   39.6170 N.am  195  GLY195     -0.1955
     23  CA        16.5360   45.0400   38.4460 C.3   195  GLY195      0.1869
     24  C         15.5520   46.1270   38.8470 C.2   195  GLY195      0.2309
     25  O         15.5820   46.6410   39.9740 O.2   195  GLY195     -0.2863
     26  N         17.3280   40.0380   44.4100 N.3   200  VAL200     -0.1245
     27  CA        17.2750   38.6630   44.8840 C.3   200  VAL200      0.1561
     28  C         18.5350   38.3380   45.6880 C.2   200  VAL200      0.2260
     29  O         19.6560   38.5890   45.2250 O.2   200  VAL200     -0.2867
     30  CB        17.1230   37.6530   43.7290 C.3   200  VAL200      0.0252
     31  CG1       16.8050   36.2710   44.2700 C.3   200  VAL200      0.0019
     32  CG2       16.0330   38.0860   42.7640 C.3   200  VAL200      0.0019
     33  N         16.4370   31.5250   49.1390 N.3   212  ALA212     -0.1245
     34  CA        16.4720   32.6670   48.2610 C.3   212  ALA212      0.1562
     35  C         15.4030   33.6430   48.7290 C.2   212  ALA212      0.2260
     36  O         14.3060   33.2340   49.1060 O.2   212  ALA212     -0.2867
     37  CB        16.2360   32.2490   46.8380 C.3   212  ALA212      0.0290
     38  N         13.4680   37.0450   47.5040 N.3   214  LYS214     -0.1245
     39  CA        13.1540   38.0230   46.4770 C.3   214  LYS214      0.1561
     40  C         12.5090   39.2350   47.1640 C.2   214  LYS214      0.2260
     41  O         11.5620   39.0750   47.9270 O.2   214  LYS214     -0.2867
     42  CB        12.2260   37.4030   45.4290 C.3   214  LYS214      0.0271
     43  CG        11.9370   38.3130   44.2600 C.3   214  LYS214      0.0035
     44  CD        11.0650   37.6330   43.2170 C.3   214  LYS214      0.0206
     45  CE        10.8300   38.5400   42.0060 C.3   214  LYS214      0.1093
     46  NZ         9.9480   37.8270   41.0120 N.3   214  LYS214     -0.1314
     47  N          2.6520   36.0870   42.7980 N.3   229  GLU229     -0.1245
     48  CA         3.5950   35.0180   42.6240 C.3   229  GLU229      0.1567
     49  C          3.5940   34.0080   43.7720 C.2   229  GLU229      0.2260
     50  O          3.6160   32.7970   43.5380 O.2   229  GLU229     -0.2867
     51  CB         4.9870   35.6360   42.4300 C.3   229  GLU229      0.0388
     52  CG         6.1050   34.6420   42.2800 C.3   229  GLU229      0.1160
     53  CD         7.4720   35.3180   42.0780 C.2   229  GLU229      0.3649
     54  OE1        7.5500   36.5120   41.6910 O.co2 229  GLU229     -0.2457
     55  OE2        8.4810   34.6390   42.3210 O.co2 229  GLU229     -0.2457
     56  N         10.1120   25.1880   41.9850 N.3   242  VAL242     -0.1245
     57  CA        10.7240   25.8600   43.1320 C.3   242  VAL242      0.1561
     58  C          9.6780   26.0530   44.2470 C.2   242  VAL242      0.2260
     59  O          8.5540   26.5200   43.9960 O.2   242  VAL242     -0.2867
     60  CB        11.3760   27.1930   42.6840 C.3   242  VAL242      0.0252
     61  CG1       11.9060   28.0000   43.8810 C.3   242  VAL242      0.0019
     62  CG2       12.4970   26.9110   41.7320 C.3   242  VAL242      0.0019
     63  N         11.9420   31.4840   49.2110 N.3   257  THR257     -0.1203
     64  CA        11.8310   30.1650   48.5890 C.3   257  THR257      0.1994
     65  C         13.0550   29.2980   48.8460 C.2   257  THR257      0.2618
     66  O         14.0810   29.7630   49.3620 O.2   257  THR257     -0.2717
     67  CB        11.6430   30.2810   47.0600 C.3   257  THR257      0.1784
     68  OG1       12.8260   30.8000   46.4410 O.3   257  THR257     -0.2211
     69  CG2       10.5410   31.2850   46.6950 C.3   257  THR257      0.0376
     70  N         12.9660   28.0430   48.4210 N.am  258  GLU258     -0.1965
     71  CA        14.1430   27.1930   48.3840 C.3   258  GLU258      0.1733
     72  C         15.2050   27.8340   47.5040 C.2   258  GLU258      0.2616
     73  O         14.8950   28.5880   46.5800 O.2   258  GLU258     -0.2715
     74  CB        13.8120   25.7710   47.9030 C.3   258  GLU258      0.0429
     75  CG        13.8050   25.5840   46.4160 C.3   258  GLU258      0.1163
     76  CD        13.4540   24.1680   45.9960 C.2   258  GLU258      0.3649
     77  OE1       14.3130   23.2630   46.0640 O.co2 258  GLU258     -0.2457
     78  OE2       12.3100   23.9670   45.5960 O.co2 258  GLU258     -0.2457
     79  N         16.4620   27.5190   47.7970 N.am  259  TYR259     -0.1960
     80  CA        17.5920   28.0800   47.0610 C.3   259  TYR259      0.1771
     81  C         18.1200   27.0430   46.1010 C.2   259  TYR259      0.2619
     82  O         18.3360   25.8870   46.4830 O.2   259  TYR259     -0.2715
     83  CB        18.6870   28.4750   48.0340 C.3   259  TYR259      0.0574
     84  CG        19.9660   28.9780   47.3970 C.ar  259  TYR259     -0.0198
     85  CD1       19.9890   30.1860   46.7080 C.ar  259  TYR259     -0.0009
     86  CD2       21.1570   28.2570   47.4960 C.ar  259  TYR259     -0.0009
     87  CE1       21.1600   30.6650   46.1290 C.ar  259  TYR259      0.0417
     88  CE2       22.3480   28.7450   46.9410 C.ar  259  TYR259      0.0417
     89  CZ        22.3290   29.9440   46.2630 C.ar  259  TYR259      0.1957
     90  OH        23.4700   30.4360   45.7210 O.3   259  TYR259     -0.2866
     91  N         18.3100   27.4410   44.8500 N.am  260  MET260     -0.1963
     92  CA        18.8560   26.5500   43.8150 C.3   260  MET260      0.1736
     93  C         20.3010   26.9920   43.5650 C.2   260  MET260      0.2617
     94  O         20.5250   28.1150   43.1140 O.2   260  MET260     -0.2715
     95  CB        18.0380   26.6580   42.5290 C.3   260  MET260      0.0427
     96  CG        16.5650   26.3010   42.7000 C.3   260  MET260      0.0599
     97  SD        16.3260   24.5970   43.2370 S.3   260  MET260     -0.1393
     98  CE        17.1390   23.7030   41.9090 C.3   260  MET260      0.0692
     99  N         21.2660   26.1260   43.8540 N.am  261  SER261     -0.1936
    100  CA        22.6460   26.5750   44.0030 C.3   261  SER261      0.2055
    101  C         23.3500   27.0020   42.7160 C.2   261  SER261      0.2643
    102  O         24.3420   27.7070   42.7990 O.2   261  SER261     -0.2714
    103  CB        23.5030   25.5260   44.7230 C.3   261  SER261      0.2130
    104  OG        23.5710   24.3310   43.9810 O.3   261  SER261     -0.2179
    105  N         22.8910   26.5530   41.5510 N.am  262  LYS262     -0.1963
    106  CA        23.5920   26.8530   40.2880 C.3   262  LYS262      0.1728
    107  C         22.9930   27.9690   39.4160 C.2   262  LYS262      0.2617
    108  O         23.5370   28.2980   38.3650 O.2   262  LYS262     -0.2715
    109  CB        23.7510   25.5770   39.4560 C.3   262  LYS262      0.0311
    110  CG        24.3720   24.4160   40.2300 C.3   262  LYS262      0.0038
    111  CD        25.7480   24.7680   40.7520 C.3   262  LYS262      0.0206
    112  CE        26.4190   23.5890   41.4030 C.3   262  LYS262      0.1093
    113  NZ        27.8540   23.8720   41.7290 N.3   262  LYS262     -0.1314
    114  N         21.8780   28.5480   39.8260 N.am  263  GLY263     -0.1940
    115  CA        21.3510   29.6970   39.1240 C.3   263  GLY263      0.2014
    116  C         20.5310   29.3270   37.9070 C.2   263  GLY263      0.2639
    117  O         20.0290   28.2150   37.8070 O.2   263  GLY263     -0.2714
    118  N         20.3830   30.2560   36.9780 N.am  264  SER264     -0.1949
    119  CA        19.4860   30.0260   35.8400 C.3   264  SER264      0.1924
    120  C         20.0790   29.0210   34.8600 C.2   264  SER264      0.2314
    121  O         21.3080   28.9580   34.6800 O.2   264  SER264     -0.2863
    122  CB        19.1450   31.3260   35.1110 C.3   264  SER264      0.2116
    123  OG        20.1820   31.7050   34.2430 O.3   264  SER264     -0.2180
    124  N         22.2450   30.6730   32.0140 N.3   267  ASP267     -0.1239
    125  CA        23.6370   30.9470   32.4050 C.3   267  ASP267      0.1674
    126  C         24.4700   29.6540   32.5770 C.2   267  ASP267      0.2266
    127  O         25.6600   29.6140   32.2440 O.2   267  ASP267     -0.2867
    128  CB        23.7010   31.7480   33.7090 C.3   267  ASP267      0.1410
    129  CG        23.2660   33.2040   33.5480 C.2   267  ASP267      0.3668
    130  OD1       23.2320   33.7150   32.4080 O.co2 267  ASP267     -0.2456
    131  OD2       22.9340   33.9050   34.5350 O.co2 267  ASP267     -0.2456
    132  N         15.6060   27.1670   37.0810 N.3   312  LEU312     -0.1245
    133  CA        16.7530   27.2040   37.9820 C.3   312  LEU312      0.1561
    134  C         17.3570   25.8120   38.1350 C.2   312  LEU312      0.2260
    135  O         16.6510   24.7960   38.0210 O.2   312  LEU312     -0.2867
    136  CB        16.3520   27.7670   39.3500 C.3   312  LEU312      0.0270
    137  CG        15.9700   29.2430   39.3590 C.3   312  LEU312      0.0019
    138  CD1       15.2710   29.6420   40.6530 C.3   312  LEU312      0.0001
    139  CD2       17.2370   30.0820   39.1120 C.3   312  LEU312      0.0001
    140  N         10.6430   27.9420   37.6720 N.3   322  ALA322     -0.1231
    141  CA        10.6420   29.0530   38.6140 C.3   322  ALA322      0.1694
    142  C          9.8600   30.2160   37.9930 C.2   322  ALA322      0.2592
    143  O          9.2110   30.0370   36.9670 O.2   322  ALA322     -0.2718
    144  CB        12.0600   29.4610   38.9210 C.3   322  ALA322      0.0304
    145  N          9.9370   31.3810   38.6380 N.am  323  ASP323     -0.1974
    146  CA         9.3460   32.6420   38.1730 C.3   323  ASP323      0.1709
    147  C          7.8860   32.5320   37.8040 C.2   323  ASP323      0.2293
    148  O          7.4930   32.6010   36.6360 O.2   323  ASP323     -0.2864
    149  CB        10.1230   33.2920   37.0250 C.3   323  ASP323      0.1436
    150  CG         9.9790   34.8220   37.0330 C.2   323  ASP323      0.3671
    151  OD1        8.9570   35.3490   37.5640 O.co2 323  ASP323     -0.2456
    152  OD2       10.8530   35.5820   36.5700 O.co2 323  ASP323     -0.2456
@<TRIPOS>BOND
     1   124   125    1
     2   127   126    2
     3   125   126    1
     4   125   128    1
     5   130   129   ar
     6   129   128    1
     7   129   131   ar
     8   123   122    1
     9   121   120    2
    10   120   119    1
    11   122   119    1
    12   119   118    1
    13   152   150   ar
    14   148   147    2
    15   143   142    2
    16   118   116   am
    17   149   150    1
    18   149   146    1
    19   150   151   ar
    20   132   133    1
    21   140   141    1
    22   147   146    1
    23   117   116    2
    24   116   115    1
    25   133   134    1
    26   133   136    1
    27   142   141    1
    28   142   145   am
    29   135   134    2
    30   146   145    1
    31   108   107    2
    32    23    24    1
    33    23    22    1
    34    16    15    2
    35   141   144    1
    36    24    25    2
    37   139   137    1
    38   115   114    1
    39   136   137    1
    40   137   138    1
    41   107   114   am
    42   107   106    1
    43   109   110    1
    44   109   106    1
    45    15    22   am
    46    15    14    1
    47   110   111    1
    48   106   105    1
    49    13    14    1
    50    13    11   am
    51   111   112    1
    52    14    17    1
    53    18    17    1
    54    18    19    1
    55    46    45    1
    56     4     3    2
    57    10    11    1
    58    10     9    1
    59   112   113    1
    60   105   101   am
    61    11    12    2
    62    54    53   ar
    63    62    60    1
    64    19    20    2
    65    19    21   am
    66    98    97    1
    67    56    57    1
    68    45    44    1
    69    53    52    1
    70    53    55   ar
    71     3     9   am
    72     3     2    1
    73    52    51    1
    74    51    48    1
    75    95    96    1
    76    95    92    1
    77    48    47    1
    78    48    49    1
    79    60    57    1
    80    60    61    1
    81    96    97    1
    82   101   102    2
    83   101   100    1
    84    32    30    1
    85    94    93    2
    86    57    58    1
    87    44    43    1
    88     2     5    1
    89     2     1    1
    90    50    49    2
    91     5     6    1
    92    93    92    1
    93    93    99   am
    94    30    31    1
    95    30    27    1
    96    92    91    1
    97    99   100    1
    98   104   103    1
    99    59    58    2
   100   100   103    1
   101    43    42    1
   102    26    27    1
   103     8     6    1
   104     6     7    1
   105    91    81   am
   106    27    28    1
   107    29    28    2
   108    42    39    1
   109    78    76   ar
   110    90    89    1
   111    76    77   ar
   112    76    75    1
   113    81    82    2
   114    81    80    1
   115    87    89   ar
   116    87    85   ar
   117    89    88   ar
   118    75    74    1
   119    68    67    1
   120    39    40    1
   121    39    38    1
   122    73    72    2
   123    69    67    1
   124    85    84   ar
   125    37    34    1
   126    88    86   ar
   127    67    64    1
   128    80    79    1
   129    80    83    1
   130    40    41    2
   131    84    86   ar
   132    84    83    1
   133    72    79   am
   134    72    71    1
   135    74    71    1
   136    34    35    1
   137    34    33    1
   138    71    70    1
   139    70    65   am
   140    64    65    1
   141    64    63    1
   142    35    36    2
   143    65    66    2
