@<TRIPOS>MOLECULE
tmp/1y59A00.pdb
 161 159 0 0 0
SMALL
GASTEIGER

@<TRIPOS>ATOM
      1  N         36.2810   23.5510   44.8710 N.3    40  HIS40      -0.1241
      2  CA        37.1910   24.6760   45.1790 C.3    40  HIS40       0.1621
      3  C         38.2740   24.8030   44.1110 C.2    40  HIS40       0.2264
      4  O         39.0320   25.7580   44.1220 O.2    40  HIS40      -0.2867
      5  CB        37.7270   24.5550   46.5760 C.3    40  HIS40       0.0745
      6  CG        38.9230   23.6720   46.7880 C.ar   40  HIS40       0.0817
      7  ND1       38.8480   22.3680   47.2290 N.ar   40  HIS40      -0.2268
      8  CD2       40.2390   23.9310   46.6140 C.ar   40  HIS40       0.1154
      9  CE1       40.0760   21.8670   47.3200 C.ar   40  HIS40       0.1986
     10  NE2       40.9220   22.7880   46.9610 N.ar   40  HIS40      -0.2212
     11  N         33.0520   28.5770   52.1420 N.3    79  GLU79      -0.1231
     12  CA        33.6110   28.8860   53.4520 C.3    79  GLU79       0.1699
     13  C         33.9270   27.6020   54.2120 C.2    79  GLU79       0.2593
     14  O         34.9450   27.5840   54.8910 O.2    79  GLU79      -0.2718
     15  CB        32.6620   29.8430   54.1780 C.3    79  GLU79       0.0402
     16  CG        32.3180   29.6120   55.6310 C.3    79  GLU79       0.1161
     17  CD        31.6130   30.8390   56.1850 C.2    79  GLU79       0.3649
     18  OE1       32.2910   31.8900   56.2190 O.co2  79  GLU79      -0.2457
     19  OE2       30.4290   30.7660   56.5450 O.co2  79  GLU79      -0.2457
     20  N         33.1060   26.5730   54.0950 N.am   80  THR80      -0.1939
     21  CA        33.2310   25.3640   54.8580 C.3    80  THR80       0.2028
     22  C         33.6990   24.1730   54.0320 C.2    80  THR80       0.2642
     23  O         34.0020   23.1080   54.6020 O.2    80  THR80      -0.2714
     24  CB        31.9020   25.0040   55.5120 C.3    80  THR80       0.1808
     25  OG1       30.9340   24.8080   54.4810 O.3    80  THR80      -0.2208
     26  CG2       31.2500   26.0820   56.3480 C.3    80  THR80       0.0379
     27  N         33.7150   24.3290   52.7380 N.am   81  TYR81      -0.1973
     28  CA        33.9740   23.2660   51.7470 C.3    81  TYR81       0.1639
     29  C         33.0130   22.1120   51.8380 C.2    81  TYR81       0.2290
     30  O         33.2070   21.0230   51.3040 O.2    81  TYR81      -0.2864
     31  CB        35.3930   22.7250   51.7650 C.3    81  TYR81       0.0560
     32  CG        36.4430   23.6340   51.1330 C.ar   81  TYR81      -0.0198
     33  CD1       36.2310   24.9770   50.8420 C.ar   81  TYR81      -0.0009
     34  CD2       37.6840   23.1420   50.8080 C.ar   81  TYR81      -0.0009
     35  CE1       37.2390   25.7520   50.2610 C.ar   81  TYR81       0.0417
     36  CE2       38.6710   23.9150   50.2550 C.ar   81  TYR81       0.0417
     37  CZ        38.4540   25.2420   49.9490 C.ar   81  TYR81       0.1957
     38  OH        39.4830   25.9860   49.4090 O.3    81  TYR81      -0.2866
     39  N         33.6410   21.2740   62.1730 N.3   155  GLN155     -0.1245
     40  CA        33.8870   21.5030   60.7500 C.3   155  GLN155      0.1566
     41  C         33.5990   20.3230   59.8650 C.2   155  GLN155      0.2260
     42  O         33.6300   20.4360   58.6510 O.2   155  GLN155     -0.2867
     43  CB        35.3490   21.8960   60.5630 C.3   155  GLN155      0.0367
     44  CG        35.7140   23.1890   61.3300 C.3   155  GLN155      0.0905
     45  CD        37.1620   23.4210   60.9780 C.2   155  GLN155      0.2608
     46  OE1       37.5170   23.9900   59.9500 O.2   155  GLN155     -0.2717
     47  NE2       38.0160   22.8690   61.7960 N.am  155  GLN155     -0.0878
     48  N         50.3370   12.4530   53.9930 N.3   171  ASP171     -0.1225
     49  CA        49.0850   13.1730   53.7240 C.3   171  ASP171      0.1805
     50  C         49.0520   13.6450   52.2960 C.2   171  ASP171      0.2598
     51  O         50.0730   13.5960   51.5980 O.2   171  ASP171     -0.2718
     52  CB        49.0100   14.3670   54.6810 C.3   171  ASP171      0.1424
     53  CG        47.7210   15.1300   54.8430 C.2   171  ASP171      0.3668
     54  OD1       46.6660   14.6610   54.3170 O.co2 171  ASP171     -0.2456
     55  OD2       47.7620   16.1990   55.5370 O.co2 171  ASP171     -0.2456
     56  N         47.8980   14.1280   51.8420 N.am  172  SER172     -0.1938
     57  CA        47.8310   14.9070   50.6100 C.3   172  SER172      0.2055
     58  C         48.1870   16.3560   50.9810 C.2   172  SER172      0.2643
     59  O         48.3500   16.7020   52.1600 O.2   172  SER172     -0.2714
     60  CB        46.4880   14.7500   49.9390 C.3   172  SER172      0.2130
     61  OG        45.4030   15.1120   50.7570 O.3   172  SER172     -0.2179
     62  N         48.3260   17.2160   49.9820 N.am  173  CYS173     -0.1953
     63  CA        48.8180   18.5570   50.2680 C.3   173  CYS173      0.1843
     64  C         48.3320   19.4840   49.1510 C.2   173  CYS173      0.2625
     65  O         47.6960   19.0570   48.1900 O.2   173  CYS173     -0.2714
     66  CB        50.3680   18.5110   50.4620 C.3   173  CYS173      0.0997
     67  SG        51.0760   19.9180   51.3130 S.3   173  CYS173     -0.0797
     68  N         48.6800   20.7810   49.2680 N.am  174  GLN174     -0.1977
     69  CA        48.3970   21.7770   48.2530 C.3   174  GLN174      0.1601
     70  C         48.8720   21.2290   46.9060 C.2   174  GLN174      0.2287
     71  O         49.9740   20.7410   46.7010 O.2   174  GLN174     -0.2864
     72  CB        49.1170   23.1080   48.5220 C.3   174  GLN174      0.0394
     73  CG        48.6540   24.3200   47.7520 C.3   174  GLN174      0.0908
     74  CD        48.8490   24.4130   46.2510 C.2   174  GLN174      0.2608
     75  OE1       49.9090   24.0530   45.6840 O.2   174  GLN174     -0.2717
     76  NE2       47.8190   24.8210   45.5080 N.am  174  GLN174     -0.0878
     77  N         44.5630   18.8100   45.4510 N.3   177  SER177     -0.1217
     78  CA        43.1480   19.0850   45.5520 C.3   177  SER177      0.1889
     79  C         42.4380   18.6550   44.2810 C.2   177  SER177      0.2288
     80  O         42.9250   18.8930   43.1700 O.2   177  SER177     -0.2866
     81  CB        42.8370   20.5500   45.7450 C.3   177  SER177      0.2089
     82  OG        43.1910   20.9490   47.0710 O.3   177  SER177     -0.2183
     83  N         40.2460   14.8790   47.1360 N.3   191  VAL191     -0.1231
     84  CA        41.1300   15.6810   47.9590 C.3   191  VAL191      0.1692
     85  C         40.4880   17.0650   48.1460 C.2   191  VAL191      0.2593
     86  O         40.2990   17.7960   47.1820 O.2   191  VAL191     -0.2718
     87  CB        42.5270   15.8170   47.3510 C.3   191  VAL191      0.0266
     88  CG1       43.4190   16.6740   48.2540 C.3   191  VAL191      0.0020
     89  CG2       43.1840   14.4750   47.1030 C.3   191  VAL191      0.0020
     90  N         40.1900   17.4210   49.3910 N.am  192  SER192     -0.1938
     91  CA        39.4200   18.6280   49.7010 C.3   192  SER192      0.2055
     92  C         40.1790   19.6130   50.5620 C.2   192  SER192      0.2643
     93  O         40.4410   20.7040   50.0520 O.2   192  SER192     -0.2714
     94  CB        38.0260   18.2250   50.2520 C.3   192  SER192      0.2130
     95  OG        37.2460   19.3680   50.4860 O.3   192  SER192     -0.2179
     96  N         40.4730   19.2950   51.7940 N.am  193  TRP193     -0.1959
     97  CA        41.1220   20.2820   52.6580 C.3   193  TRP193      0.1771
     98  C         41.8430   19.5830   53.7910 C.2   193  TRP193      0.2620
     99  O         41.8550   18.3870   53.9420 O.2   193  TRP193     -0.2715
    100  CB        40.1030   21.2890   53.1670 C.3   193  TRP193      0.0590
    101  CG        38.9730   20.8370   54.0300 C.ar  193  TRP193      0.0006
    102  CD1       37.8080   20.3100   53.6150 C.ar  193  TRP193      0.0946
    103  CD2       38.8970   20.9010   55.4640 C.ar  193  TRP193      0.0152
    104  NE1       36.9740   20.0300   54.6640 N.ar  193  TRP193     -0.2442
    105  CE2       37.6500   20.3840   55.8170 C.ar  193  TRP193      0.0810
    106  CE3       39.7670   21.3280   56.4640 C.ar  193  TRP193      0.0012
    107  CZ2       37.2660   20.3000   57.1440 C.ar  193  TRP193      0.0191
    108  CZ3       39.3870   21.2500   57.7760 C.ar  193  TRP193      0.0001
    109  CH2       38.1470   20.7380   58.0890 C.ar  193  TRP193      0.0015
    110  N         42.4950   20.3940   54.5960 N.am  194  GLY194     -0.1940
    111  CA        43.1880   19.9120   55.8010 C.3   194  GLY194      0.2014
    112  C         43.8740   21.0700   56.5030 C.2   194  GLY194      0.2640
    113  O         43.5810   22.2180   56.1720 O.2   194  GLY194     -0.2714
    114  N         44.6970   20.8040   57.4570 N.am  195  SER195     -0.1935
    115  CA        45.4580   21.8080   58.1970 C.3   195  SER195      0.2055
    116  C         46.9380   21.5650   57.9920 C.2   195  SER195      0.2644
    117  O         47.4880   20.5470   58.4450 O.2   195  SER195     -0.2714
    118  CB        45.0130   21.7740   59.6520 C.3   195  SER195      0.2130
    119  OG        45.7810   22.5550   60.5270 O.3   195  SER195     -0.2179
    120  N         47.6060   22.4660   57.3130 N.am  196  GLY196     -0.1939
    121  CA        48.9770   22.1430   56.9210 C.3   196  GLY196      0.2014
    122  C         48.9800   20.8700   56.0880 C.2   196  GLY196      0.2639
    123  O         47.9900   20.5690   55.4320 O.2   196  GLY196     -0.2714
    124  N         50.0860   20.1300   56.0860 N.am  197  CYS197     -0.1967
    125  CA        50.1440   18.8360   55.4050 C.3   197  CYS197      0.1712
    126  C         50.9200   17.8780   56.3050 C.2   197  CYS197      0.2296
    127  O         52.0170   18.2210   56.7580 O.2   197  CYS197     -0.2864
    128  CB        50.8540   18.8610   54.0490 C.3   197  CYS197      0.0983
    129  SG        50.0060   20.0470   52.9730 S.3   197  CYS197     -0.0798
    130  N         46.2000   15.9150   62.5000 N.3   202  LYS202     -0.1245
    131  CA        45.4480   16.7440   61.5620 C.3   202  LYS202      0.1561
    132  C         45.4210   16.0210   60.2100 C.2   202  LYS202      0.2260
    133  O         46.1400   16.2970   59.2490 O.2   202  LYS202     -0.2867
    134  CB        46.0020   18.1450   61.4670 C.3   202  LYS202      0.0271
    135  CG        45.7330   19.0180   62.6810 C.3   202  LYS202      0.0035
    136  CD        44.2680   19.3750   62.9040 C.3   202  LYS202      0.0206
    137  CE        44.1220   20.3540   64.0580 C.3   202  LYS202      0.1093
    138  NZ        43.2100   19.8790   65.1300 N.3   202  LYS202     -0.1314
    139  N         44.0490   14.4230   56.5950 N.3   204  GLY204     -0.1210
    140  CA        43.3990   15.0180   55.4220 C.3   204  GLY204      0.1956
    141  C         41.8980   14.8390   55.4510 C.2   204  GLY204      0.2612
    142  O         41.3820   13.8200   55.9430 O.2   204  GLY204     -0.2717
    143  N         41.1840   15.8150   54.8640 N.am  205  VAL205     -0.1965
    144  CA        39.7250   15.7790   54.7420 C.3   205  VAL205      0.1727
    145  C         39.3500   15.6800   53.2680 C.2   205  VAL205      0.2616
    146  O         39.9240   16.3600   52.4120 O.2   205  VAL205     -0.2715
    147  CB        39.0080   16.9600   55.4470 C.3   205  VAL205      0.0290
    148  CG1       37.5090   16.7910   55.4820 C.3   205  VAL205      0.0023
    149  CG2       39.5900   17.2320   56.8390 C.3   205  VAL205      0.0023
    150  N         38.4160   14.7890   52.9820 N.am  206  TYR206     -0.1974
    151  CA        38.0320   14.3550   51.6440 C.3   206  TYR206      0.1639
    152  C         36.5360   14.4250   51.4410 C.2   206  TYR206      0.2290
    153  O         35.7450   14.1220   52.3530 O.2   206  TYR206     -0.2864
    154  CB        38.5490   12.9120   51.4130 C.3   206  TYR206      0.0560
    155  CG        40.0340   12.8560   51.6200 C.ar  206  TYR206     -0.0198
    156  CD1       40.6550   12.5530   52.8180 C.ar  206  TYR206     -0.0009
    157  CD2       40.8720   13.1580   50.5700 C.ar  206  TYR206     -0.0009
    158  CE1       42.0400   12.5330   52.9360 C.ar  206  TYR206      0.0417
    159  CE2       42.2380   13.1680   50.6570 C.ar  206  TYR206      0.0417
    160  CZ        42.8280   12.8530   51.8590 C.ar  206  TYR206      0.1957
    161  OH        44.2000   12.8870   51.8880 O.3   206  TYR206     -0.2866
@<TRIPOS>BOND
     1    80    79    2
     2     3     4    2
     3     3     2    1
     4    79    78    1
     5     1     2    1
     6     2     5    1
     7    77    78    1
     8    76    74   am
     9    78    81    1
    10    75    74    2
    11    81    82    1
    12    74    73    1
    13     5     6    1
    14     8     6   ar
    15     8    10   ar
    16    71    70    2
    17     6     7   ar
    18    70    69    1
    19    10     9   ar
    20    89    87    1
    21    83    84    1
    22    86    85    2
    23     7     9   ar
    24    87    84    1
    25    87    88    1
    26    73    72    1
    27    84    85    1
    28    85    90   am
    29    65    64    2
    30    69    72    1
    31    69    68    1
    32    64    68   am
    33    64    63    1
    34    90    91    1
    35    38    37    1
    36    91    94    1
    37    91    92    1
    38    60    57    1
    39    60    61    1
    40    37    36   ar
    41    37    35   ar
    42    62    63    1
    43    62    58   am
    44    93    92    2
    45    94    95    1
    46    36    34   ar
    47    35    33   ar
    48    63    66    1
    49    66    67    1
    50    92    96   am
    51   157   159   ar
    52   157   155   ar
    53    57    58    1
    54    57    56    1
    55   159   160   ar
    56    34    32   ar
    57    33    32   ar
    58    58    59    2
    59    32    31    1
    60    30    29    2
    61    67   129    1
    62   154   155    1
    63   154   151    1
    64   152   151    1
    65   152   153    2
    66    51    50    2
    67   155   156   ar
    68   151   150    1
    69    28    31    1
    70    28    29    1
    71    28    27    1
    72    96    97    1
    73    56    50   am
    74   160   161    1
    75   160   158   ar
    76    11    12    1
    77    50    49    1
    78   146   145    2
    79    97   100    1
    80    97    98    1
    81    27    22   am
    82   156   158   ar
    83   129   128    1
    84   150   145   am
    85   100   101    1
    86   145   144    1
    87    12    15    1
    88    12    13    1
    89   102   101   ar
    90   102   104   ar
    91    49    48    1
    92    49    52    1
    93    98    99    2
    94    98   110   am
    95   101   103   ar
    96    22    23    2
    97    22    21    1
    98   128   125    1
    99    20    13   am
   100    20    21    1
   101    15    16    1
   102    13    14    2
   103    54    53   ar
   104    25    24    1
   105   110   111    1
   106   104   105   ar
   107    52    53    1
   108   144   143    1
   109   144   147    1
   110    53    55   ar
   111    21    24    1
   112   143   141   am
   113   125   124    1
   114   125   126    1
   115   140   141    1
   116   140   139    1
   117   123   122    2
   118   147   148    1
   119   147   149    1
   120   141   142    2
   121   103   105   ar
   122   103   106   ar
   123    24    26    1
   124    16    17    1
   125   111   112    1
   126   105   107   ar
   127   124   122   am
   128   122   121    1
   129   113   112    2
   130    17    18   ar
   131    17    19   ar
   132   126   127    2
   133   106   108   ar
   134   112   114   am
   135   121   120    1
   136   107   109   ar
   137   120   116   am
   138   114   115    1
   139   108   109   ar
   140   116   115    1
   141   116   117    2
   142   115   118    1
   143    42    41    2
   144   133   132    2
   145   118   119    1
   146    41    40    1
   147    46    45    2
   148   132   131    1
   149    43    40    1
   150    43    44    1
   151    40    39    1
   152    45    44    1
   153    45    47   am
   154   134   131    1
   155   134   135    1
   156   131   130    1
   157   135   136    1
   158   136   137    1
   159   137   138    1
