@<TRIPOS>MOLECULE
tmp/1y5aA00.pdb
 159 159 0 0 0
SMALL
GASTEIGER

@<TRIPOS>ATOM
      1  N         11.2020   27.8250   26.9500 N.3    40  HIS40      -0.1241
      2  CA        12.6140   27.5740   27.2560 C.3    40  HIS40       0.1621
      3  C         13.2650   26.6960   26.1890 C.2    40  HIS40       0.2264
      4  O         14.4700   26.5030   26.2120 O.2    40  HIS40      -0.2867
      5  CB        12.7870   27.0390   28.6610 C.3    40  HIS40       0.0745
      6  CG        12.6690   25.5650   28.8900 C.ar   40  HIS40       0.0817
      7  ND1       11.5060   24.9960   29.3490 N.ar   40  HIS40      -0.2268
      8  CD2       13.5390   24.5460   28.7390 C.ar   40  HIS40       0.1154
      9  CE1       11.6600   23.6720   29.4620 C.ar   40  HIS40       0.1986
     10  NE2       12.9150   23.3810   29.0910 N.ar   40  HIS40      -0.2212
     11  N         13.9830   33.0170   34.1610 N.3    79  GLU79      -0.1231
     12  CA        14.5480   32.6610   35.4660 C.3    79  GLU79       0.1699
     13  C         13.5870   31.7430   36.2170 C.2    79  GLU79       0.2593
     14  O         14.0870   30.7490   36.7600 O.2    79  GLU79      -0.2718
     15  CB        14.7930   33.9170   36.2960 C.3    79  GLU79       0.0402
     16  CG        15.1220   33.6470   37.7660 C.3    79  GLU79       0.1161
     17  CD        15.7090   34.8940   38.4200 C.2    79  GLU79       0.3649
     18  OE1       14.9350   35.6580   39.0340 O.co2  79  GLU79      -0.2457
     19  OE2       16.9340   35.0980   38.2980 O.co2  79  GLU79      -0.2457
     20  N         12.2950   32.0720   36.2000 N.am   80  THR80      -0.1939
     21  CA        11.2600   31.3400   36.9060 C.3    80  THR80       0.2028
     22  C         10.4830   30.3510   36.0300 C.2    80  THR80       0.2642
     23  O          9.7380   29.5560   36.6020 O.2    80  THR80      -0.2714
     24  CB        10.2370   32.3000   37.5090 C.3    80  THR80       0.1808
     25  OG1        9.7840   33.2120   36.5090 O.3    80  THR80      -0.2208
     26  CG2       10.7770   33.2840   38.5370 C.3    80  THR80       0.0379
     27  N         10.6070   30.4320   34.7330 N.am   81  TYR81      -0.1973
     28  CA         9.8380   29.6720   33.7290 C.3    81  TYR81       0.1639
     29  C          8.3350   29.9010   33.8120 C.2    81  TYR81       0.2290
     30  O          7.4520   29.1690   33.3600 O.2    81  TYR81      -0.2864
     31  CB        10.1060   28.1690   33.7920 C.3    81  TYR81       0.0560
     32  CG        11.3760   27.6870   33.1750 C.ar   81  TYR81      -0.0198
     33  CD1       12.4470   28.5520   32.9440 C.ar   81  TYR81      -0.0009
     34  CD2       11.5290   26.3660   32.7980 C.ar   81  TYR81      -0.0009
     35  CE1       13.6160   28.0870   32.3570 C.ar   81  TYR81       0.0417
     36  CE2       12.7000   25.9260   32.2360 C.ar   81  TYR81       0.0417
     37  CZ        13.7570   26.7720   32.0050 C.ar   81  TYR81       0.1957
     38  OH        14.9370   26.3410   31.4490 O.3    81  TYR81      -0.2866
     39  N          7.6490   29.0140   44.4460 N.3   155  GLN155     -0.1245
     40  CA         8.0270   28.8990   43.0340 C.3   155  GLN155      0.1566
     41  C          6.8400   28.5980   42.1300 C.2   155  GLN155      0.2260
     42  O          6.9690   28.7410   40.9060 O.2   155  GLN155     -0.2867
     43  CB         9.0820   27.7970   42.8490 C.3   155  GLN155      0.0367
     44  CG        10.5110   28.1100   43.2530 C.3   155  GLN155      0.0905
     45  CD        11.4500   26.9230   43.2310 C.2   155  GLN155      0.2608
     46  OE1       12.2780   26.7030   42.3360 O.2   155  GLN155     -0.2717
     47  NE2       11.3720   26.0690   44.2480 N.am  155  GLN155     -0.0878
     48  N          8.6060   10.1320   36.1500 N.3   171  ASP171     -0.1225
     49  CA         8.6240   11.5880   35.9290 C.3   171  ASP171      0.1805
     50  C          8.9880   11.8430   34.4730 C.2   171  ASP171      0.2598
     51  O          9.4560   10.8990   33.8190 O.2   171  ASP171     -0.2718
     52  CB         9.6340   12.2710   36.8480 C.3   171  ASP171      0.1424
     53  CG         9.6690   13.7780   36.9670 C.2   171  ASP171      0.3668
     54  OD1        8.7710   14.4460   36.3890 O.co2 171  ASP171     -0.2456
     55  OD2       10.5970   14.2810   37.6490 O.co2 171  ASP171     -0.2456
     56  N          8.8130   13.0640   33.9900 N.am  172  SER172     -0.1938
     57  CA         9.4760   13.4670   32.7450 C.3   172  SER172      0.2055
     58  C         10.9110   13.8630   33.0840 C.2   172  SER172      0.2643
     59  O         11.2850   13.8830   34.2780 O.2   172  SER172     -0.2714
     60  CB         8.7100   14.5830   32.0560 C.3   172  SER172      0.2130
     61  OG         8.4150   15.7020   32.8510 O.3   172  SER172     -0.2179
     62  N         11.7280   14.1960   32.1150 N.am  173  CYS173     -0.1953
     63  CA        13.1310   14.4990   32.3490 C.3   173  CYS173      0.1843
     64  C         13.7020   15.3520   31.2240 C.2   173  CYS173      0.2625
     65  O         13.0530   15.7030   30.2330 O.2   173  CYS173     -0.2714
     66  CB        13.9260   13.1990   32.5010 C.3   173  CYS173      0.0997
     67  SG        15.4910   13.2280   33.4070 S.3   173  CYS173     -0.0797
     68  N         14.9870   15.6900   31.3940 N.am  174  GLN174     -0.1977
     69  CA        15.7430   16.4290   30.3880 C.3   174  GLN174      0.1601
     70  C         15.5780   15.7760   29.0350 C.2   174  GLN174      0.2287
     71  O         15.6890   14.5670   28.8730 O.2   174  GLN174     -0.2864
     72  CB        17.2220   16.4720   30.7850 C.3   174  GLN174      0.0394
     73  CG        18.1260   17.2820   29.8870 C.3   174  GLN174      0.0908
     74  CD        19.5400   17.3860   30.4130 C.2   174  GLN174      0.2608
     75  OE1       19.9320   16.6660   31.3380 O.2   174  GLN174     -0.2717
     76  NE2       20.3010   18.2990   29.8100 N.am  174  GLN174     -0.0878
     77  N         11.3500   18.2240   27.5500 N.3   177  SER177     -0.1217
     78  CA        10.8160   19.5750   27.6530 C.3   177  SER177      0.1889
     79  C         10.1170   19.9680   26.3730 C.2   177  SER177      0.2288
     80  O         10.5430   19.6960   25.2590 O.2   177  SER177     -0.2866
     81  CB        11.8760   20.6590   27.8910 C.3   177  SER177      0.2089
     82  OG        12.3750   20.5730   29.2160 O.3   177  SER177     -0.2183
     83  N          5.7130   20.0020   29.1960 N.3   191  VAL191     -0.1231
     84  CA         6.8660   19.6730   30.0430 C.3   191  VAL191      0.1692
     85  C          7.7400   20.9060   30.2540 C.2   191  VAL191      0.2593
     86  O          8.2680   21.4320   29.2550 O.2   191  VAL191     -0.2718
     87  CB         7.7010   18.5200   29.4560 C.3   191  VAL191      0.0266
     88  CG1        8.8590   18.2420   30.3980 C.3   191  VAL191      0.0020
     89  CG2        6.9070   17.2380   29.2230 C.3   191  VAL191      0.0020
     90  N          7.8920   21.3700   31.4710 N.am  192  SER192     -0.1938
     91  CA         8.5170   22.6530   31.7910 C.3   192  SER192      0.2055
     92  C          9.7460   22.5440   32.6820 C.2   192  SER192      0.2643
     93  O         10.8420   22.8460   32.1930 O.2   192  SER192     -0.2714
     94  CB         7.4340   23.6150   32.3440 C.3   192  SER192      0.2130
     95  OG         8.0040   24.8770   32.5470 O.3   192  SER192     -0.2179
     96  N          9.5660   22.1250   33.9270 N.am  193  TRP193     -0.1959
     97  CA        10.7480   22.0340   34.7820 C.3   193  TRP193      0.1771
     98  C         10.5260   21.0710   35.9180 C.2   193  TRP193      0.2620
     99  O          9.4790   20.4240   36.0560 O.2   193  TRP193     -0.2715
    100  CB        11.1890   23.4290   35.2520 C.3   193  TRP193      0.0590
    101  CG        10.2240   24.1620   36.1320 C.ar  193  TRP193      0.0006
    102  CD1        9.1430   24.8760   35.6960 C.ar  193  TRP193      0.0946
    103  CD2       10.2100   24.2850   37.5620 C.ar  193  TRP193      0.0152
    104  NE1        8.4770   25.4280   36.7500 N.ar  193  TRP193     -0.2442
    105  CE2        9.1030   25.0820   37.9190 C.ar  193  TRP193      0.0810
    106  CE3       11.0370   23.8010   38.5780 C.ar  193  TRP193      0.0012
    107  CZ2        8.7860   25.3980   39.2310 C.ar  193  TRP193      0.0191
    108  CZ3       10.7380   24.1100   39.9090 C.ar  193  TRP193      0.0001
    109  CH2        9.6280   24.9010   40.1950 C.ar  193  TRP193      0.0015
    110  N         11.5180   20.9400   36.8250 N.am  194  GLY194     -0.1940
    111  CA        11.4440   20.0550   37.9750 C.3   194  GLY194      0.2014
    112  C         12.8070   20.0610   38.6530 C.2   194  GLY194      0.2640
    113  O         13.6620   20.9080   38.3860 O.2   194  GLY194     -0.2714
    114  N         13.0160   19.1040   39.5300 N.am  195  SER195     -0.1935
    115  CA        14.2370   19.0290   40.3340 C.3   195  SER195      0.2055
    116  C         14.8210   17.6480   40.1330 C.2   195  SER195      0.2644
    117  O         14.2220   16.6750   40.6110 O.2   195  SER195     -0.2714
    118  CB        13.9240   19.2970   41.7970 C.3   195  SER195      0.2130
    119  OG        15.1200   19.0740   42.5370 O.3   195  SER195     -0.2179
    120  N         15.9170   17.5510   39.3990 N.am  196  GLY196     -0.1939
    121  CA        16.3510   16.2090   39.0620 C.3   196  GLY196      0.2014
    122  C         15.2690   15.5780   38.1780 C.2   196  GLY196      0.2639
    123  O         14.5440   16.2880   37.4750 O.2   196  GLY196     -0.2714
    124  N         15.1520   14.2650   38.2120 N.am  197  CYS197     -0.1967
    125  CA        14.0960   13.5100   37.5590 C.3   197  CYS197      0.1712
    126  C         13.7030   12.3690   38.4920 C.2   197  CYS197      0.2296
    127  O         14.5480   11.6090   38.9450 O.2   197  CYS197     -0.2864
    128  CB        14.4880   12.9390   36.1960 C.3   197  CYS197      0.0983
    129  SG        15.1300   14.2490   35.1260 S.3   197  CYS197     -0.0798
    130  N          7.8820   16.4650   42.2840 N.3   203  PRO203     -0.2102
    131  CA         7.1740   16.0620   41.0400 C.3   203  PRO203      0.1504
    132  C          7.4990   16.9650   39.8600 C.2   203  PRO203      0.2576
    133  O          8.0100   18.0720   40.0620 O.2   203  PRO203     -0.2718
    134  CB         5.7080   16.2350   41.4470 C.3   203  PRO203      0.0282
    135  CG         5.7130   17.2730   42.5050 C.3   203  PRO203      0.0208
    136  CD         6.9850   17.0530   43.2680 C.3   203  PRO203      0.0893
    137  N          7.1820   16.5030   38.6480 N.am  204  GLY204     -0.1943
    138  CA         7.3840   17.3830   37.4720 C.3   204  GLY204      0.2014
    139  C          6.4750   18.5930   37.5220 C.2   204  GLY204      0.2639
    140  O          5.3580   18.5150   38.0500 O.2   204  GLY204     -0.2714
    141  N          6.9230   19.7110   36.9570 N.am  205  VAL205     -0.1963
    142  CA         6.1820   20.9680   36.8670 C.3   205  VAL205      0.1727
    143  C          5.9120   21.2640   35.3830 C.2   205  VAL205      0.2616
    144  O          6.8200   21.1050   34.5660 O.2   205  VAL205     -0.2715
    145  CB         6.8720   22.1540   37.5600 C.3   205  VAL205      0.0290
    146  CG1        5.9820   23.3870   37.6210 C.3   205  VAL205      0.0023
    147  CG2        7.3280   21.7690   38.9660 C.3   205  VAL205      0.0023
    148  N          4.6640   21.6320   35.0960 N.am  206  TYR206     -0.1974
    149  CA         4.0950   21.6860   33.7590 C.3   206  TYR206      0.1639
    150  C          3.3940   22.9960   33.5260 C.2   206  TYR206      0.2290
    151  O          2.7360   23.5410   34.4280 O.2   206  TYR206     -0.2864
    152  CB         3.1070   20.5260   33.5660 C.3   206  TYR206      0.0560
    153  CG         3.8360   19.2050   33.7050 C.ar  206  TYR206     -0.0198
    154  CD1        3.8760   18.5480   34.9180 C.ar  206  TYR206     -0.0009
    155  CD2        4.5320   18.6170   32.6590 C.ar  206  TYR206     -0.0009
    156  CE1        4.5620   17.3550   35.0530 C.ar  206  TYR206      0.0417
    157  CE2        5.2120   17.4290   32.7390 C.ar  206  TYR206      0.0417
    158  CZ         5.2080   16.7850   33.9790 C.ar  206  TYR206      0.1957
    159  OH         5.8950   15.6030   34.0900 O.3   206  TYR206     -0.2866
@<TRIPOS>BOND
     1    80    79    2
     2     3     4    2
     3     3     2    1
     4    79    78    1
     5     1     2    1
     6     2     5    1
     7    77    78    1
     8    78    81    1
     9    81    82    1
    10     5     6    1
    11     8     6   ar
    12     8    10   ar
    13    71    70    2
    14     6     7   ar
    15    70    69    1
    16    10     9   ar
    17    83    84    1
    18    89    87    1
    19    86    85    2
    20     7     9   ar
    21    87    84    1
    22    87    88    1
    23    76    74   am
    24    73    74    1
    25    73    72    1
    26    84    85    1
    27    65    64    2
    28    85    90   am
    29    69    72    1
    30    69    68    1
    31    74    75    2
    32    64    68   am
    33    64    63    1
    34    38    37    1
    35    90    91    1
    36    91    94    1
    37    91    92    1
    38    37    36   ar
    39    37    35   ar
    40    60    57    1
    41    60    61    1
    42    62    63    1
    43    62    58   am
    44    93    92    2
    45    36    34   ar
    46    94    95    1
    47    63    66    1
    48    35    33   ar
    49    66    67    1
    50   155   157   ar
    51   155   153   ar
    52    92    96   am
    53   157   158   ar
    54    57    58    1
    55    57    56    1
    56    34    32   ar
    57    33    32   ar
    58    58    59    2
    59    32    31    1
    60    30    29    2
    61    67   129    1
    62   150   149    1
    63   150   151    2
    64   152   153    1
    65   152   149    1
    66   153   154   ar
    67    28    31    1
    68    28    29    1
    69    28    27    1
    70   149   148    1
    71    51    50    2
    72    96    97    1
    73   158   159    1
    74   158   156   ar
    75    56    50   am
    76    11    12    1
    77    50    49    1
    78   144   143    2
    79    27    22   am
    80    97   100    1
    81    97    98    1
    82   154   156   ar
    83   148   143   am
    84   129   128    1
    85   100   101    1
    86   143   142    1
    87    12    13    1
    88    12    15    1
    89   102   101   ar
    90   102   104   ar
    91    98    99    2
    92    98   110   am
    93    49    48    1
    94    49    52    1
    95    22    23    2
    96    22    21    1
    97   101   103   ar
    98   128   125    1
    99    20    13   am
   100    20    21    1
   101    13    14    2
   102    15    16    1
   103    54    53   ar
   104    25    24    1
   105   104   105   ar
   106   110   111    1
   107    52    53    1
   108   142   141    1
   109   142   145    1
   110    21    24    1
   111   141   139   am
   112    53    55   ar
   113   138   139    1
   114   138   137    1
   115   123   122    2
   116    24    26    1
   117   139   140    2
   118   125   124    1
   119   125   126    1
   120   145   146    1
   121   145   147    1
   122   103   105   ar
   123   103   106   ar
   124    16    17    1
   125   105   107   ar
   126   111   112    1
   127   122   124   am
   128   122   121    1
   129    19    17   ar
   130   113   112    2
   131    17    18   ar
   132   126   127    2
   133   106   108   ar
   134   137   132   am
   135   112   114   am
   136   121   120    1
   137   107   109   ar
   138   120   116   am
   139   114   115    1
   140   132   133    2
   141   132   131    1
   142   108   109   ar
   143   116   115    1
   144   116   117    2
   145   115   118    1
   146    42    41    2
   147   131   134    1
   148   131   130    1
   149   134   135    1
   150   118   119    1
   151    41    40    1
   152   130   136    1
   153    46    45    2
   154   135   136    1
   155    43    40    1
   156    43    44    1
   157    40    39    1
   158    45    44    1
   159    45    47   am
