@<TRIPOS>MOLECULE
tmp/1y5bA00.pdb
 136 135 0 0 0
SMALL
GASTEIGER

@<TRIPOS>ATOM
      1  N         17.5990   23.6930   25.9840 N.3    40  HIS40      -0.1241
      2  CA        16.6720   24.7990   25.7690 C.3    40  HIS40       0.1621
      3  C         15.6170   24.9060   26.8760 C.2    40  HIS40       0.2264
      4  O         14.8810   25.8940   26.8590 O.2    40  HIS40      -0.2867
      5  CB        16.0150   24.7030   24.4110 C.3    40  HIS40       0.0745
      6  CG        14.8760   23.7590   24.2370 C.ar   40  HIS40       0.0817
      7  ND1       15.0350   22.5320   23.6380 N.ar   40  HIS40      -0.2268
      8  CD2       13.5570   23.8300   24.5420 C.ar   40  HIS40       0.1154
      9  CE1       13.8850   21.8810   23.5900 C.ar   40  HIS40       0.1986
     10  NE2       12.9710   22.6590   24.1400 N.ar   40  HIS40      -0.2212
     11  N         20.3650   24.7930   18.0380 N.3    81  TYR81      -0.1241
     12  CA        19.9140   23.7400   18.9380 C.3    81  TYR81       0.1605
     13  C         20.8140   22.5260   18.9700 C.2    81  TYR81       0.2264
     14  O         20.5420   21.4160   19.4600 O.2    81  TYR81      -0.2867
     15  CB        18.4530   23.3440   18.5900 C.3    81  TYR81       0.0534
     16  CG        17.5630   24.5400   18.8770 C.ar   81  TYR81      -0.0201
     17  CD1       16.8470   25.1610   17.8620 C.ar   81  TYR81      -0.0009
     18  CD2       17.4790   25.0430   20.1720 C.ar   81  TYR81      -0.0009
     19  CE1       16.0510   26.2520   18.1480 C.ar   81  TYR81       0.0417
     20  CE2       16.6810   26.1350   20.4530 C.ar   81  TYR81       0.0417
     21  CZ        15.9750   26.7290   19.4360 C.ar   81  TYR81       0.1957
     22  OH        15.1760   27.8230   19.7350 O.3    81  TYR81      -0.2866
     23  N          3.3630   13.1630   16.6200 N.3   171  ASP171     -0.1225
     24  CA         4.6490   13.8250   16.8920 C.3   171  ASP171      0.1805
     25  C          4.7230   14.2440   18.3440 C.2   171  ASP171      0.2598
     26  O          3.7210   14.2210   19.0790 O.2   171  ASP171     -0.2718
     27  CB         4.7810   15.0330   15.9590 C.3   171  ASP171      0.1424
     28  CG         6.1630   15.6300   15.8030 C.2   171  ASP171      0.3668
     29  OD1        7.1810   15.1260   16.3240 O.co2 171  ASP171     -0.2456
     30  OD2        6.1960   16.6740   15.0960 O.co2 171  ASP171     -0.2456
     31  N          5.9190   14.6480   18.7640 N.am  172  SER172     -0.1938
     32  CA         5.9810   15.3570   20.0440 C.3   172  SER172      0.2055
     33  C          5.7350   16.8430   19.7690 C.2   172  SER172      0.2643
     34  O          5.5460   17.2020   18.5960 O.2   172  SER172     -0.2714
     35  CB         7.2830   15.1090   20.7700 C.3   172  SER172      0.2130
     36  OG         8.3970   15.5530   20.0520 O.3   172  SER172     -0.2179
     37  N          5.7070   17.6910   20.7890 N.am  173  CYS173     -0.1953
     38  CA         5.3400   19.0900   20.5770 C.3   173  CYS173      0.1843
     39  C          5.8320   19.9520   21.7350 C.2   173  CYS173      0.2625
     40  O          6.4580   19.4410   22.6710 O.2   173  CYS173     -0.2714
     41  CB         3.8300   19.1830   20.3700 C.3   173  CYS173      0.0997
     42  SG         3.2440   20.6940   19.5650 S.3   173  CYS173     -0.0797
     43  N          5.5410   21.2510   21.6370 N.am  174  GLN174     -0.1977
     44  CA         5.8700   22.1680   22.7300 C.3   174  GLN174      0.1601
     45  C          5.3740   21.6110   24.0600 C.2   174  GLN174      0.2287
     46  O          4.2560   21.0850   24.0840 O.2   174  GLN174     -0.2864
     47  CB         5.2610   23.5550   22.4940 C.3   174  GLN174      0.0394
     48  CG         6.3220   24.5790   22.1150 C.3   174  GLN174      0.0908
     49  CD         5.7460   25.6470   21.2020 C.2   174  GLN174      0.2608
     50  OE1        5.7200   25.4770   19.9820 O.2   174  GLN174     -0.2717
     51  NE2        5.2950   26.7260   21.8290 N.am  174  GLN174     -0.0878
     52  N          9.2730   19.1230   25.4450 N.3   177  SER177     -0.1217
     53  CA        10.6660   19.4880   25.3830 C.3   177  SER177      0.1889
     54  C         11.4420   18.8890   26.5600 C.2   177  SER177      0.2288
     55  O         10.9370   18.9910   27.6770 O.2   177  SER177     -0.2866
     56  CB        10.8530   21.0000   25.4570 C.3   177  SER177      0.2089
     57  OG        10.4130   21.6590   24.2900 O.3   177  SER177     -0.2183
     58  N         13.5550   15.2230   23.4910 N.3   191  VAL191     -0.1231
     59  CA        12.6930   16.0960   22.6860 C.3   191  VAL191      0.1692
     60  C         13.3650   17.4620   22.5580 C.2   191  VAL191      0.2593
     61  O         13.5850   18.1370   23.5610 O.2   191  VAL191     -0.2718
     62  CB        11.3070   16.2780   23.3070 C.3   191  VAL191      0.0266
     63  CG1       10.4530   17.1950   22.4410 C.3   191  VAL191      0.0020
     64  CG2       10.6420   14.9200   23.5210 C.3   191  VAL191      0.0020
     65  N         13.6660   17.8310   21.3180 N.am  192  SER192     -0.1938
     66  CA        14.4870   19.0110   21.0430 C.3   192  SER192      0.2055
     67  C         13.7820   20.0210   20.1530 C.2   192  SER192      0.2643
     68  O         13.3960   21.0930   20.6500 O.2   192  SER192     -0.2714
     69  CB        15.8090   18.5720   20.3890 C.3   192  SER192      0.2130
     70  OG        16.6560   19.7150   20.2890 O.3   192  SER192     -0.2179
     71  N         13.5740   19.7380   18.8710 N.am  193  TRP193     -0.1959
     72  CA        12.8920   20.7630   18.0590 C.3   193  TRP193      0.1771
     73  C         12.1220   20.1290   16.9080 C.2   193  TRP193      0.2620
     74  O         11.9620   18.9210   16.8520 O.2   193  TRP193     -0.2715
     75  CB        13.8760   21.8500   17.6290 C.3   193  TRP193      0.0590
     76  CG        15.0110   21.4440   16.7550 C.ar  193  TRP193      0.0006
     77  CD1       16.2070   20.8860   17.1420 C.ar  193  TRP193      0.0946
     78  CD2       15.0670   21.5710   15.3300 C.ar  193  TRP193      0.0152
     79  NE1       16.9850   20.6620   16.0470 N.ar  193  TRP193     -0.2442
     80  CE2       16.3190   21.0680   14.9260 C.ar  193  TRP193      0.0810
     81  CE3       14.1820   22.0590   14.3560 C.ar  193  TRP193      0.0012
     82  CZ2       16.6950   21.0450   13.5790 C.ar  193  TRP193      0.0191
     83  CZ3       14.5550   22.0330   13.0250 C.ar  193  TRP193      0.0001
     84  CH2       15.8030   21.5260   12.6640 C.ar  193  TRP193      0.0015
     85  N         11.5920   20.9550   16.0230 N.am  194  GLY194     -0.1940
     86  CA        10.8060   20.5770   14.8680 C.3   194  GLY194      0.2014
     87  C         10.1280   21.8250   14.3180 C.2   194  GLY194      0.2640
     88  O         10.0710   22.8220   15.0370 O.2   194  GLY194     -0.2714
     89  N          9.6420   21.7500   13.0900 N.am  195  SER195     -0.1935
     90  CA         8.8140   22.8240   12.5470 C.3   195  SER195      0.2055
     91  C          7.3450   22.5240   12.8110 C.2   195  SER195      0.2644
     92  O          6.7720   21.6050   12.2350 O.2   195  SER195     -0.2714
     93  CB         9.0910   22.9980   11.0590 C.3   195  SER195      0.2130
     94  OG         8.3150   24.0530   10.5410 O.3   195  SER195     -0.2179
     95  N          6.7260   23.2960   13.7020 N.am  196  GLY196     -0.1939
     96  CA         5.3680   23.0630   14.1660 C.3   196  GLY196      0.2014
     97  C          5.3130   21.6630   14.8000 C.2   196  GLY196      0.2639
     98  O          6.3550   21.2410   15.3150 O.2   196  GLY196     -0.2714
     99  N          4.1630   20.9980   14.7410 N.am  197  CYS197     -0.1967
    100  CA         4.0620   19.6630   15.3090 C.3   197  CYS197      0.1712
    101  C          3.1330   18.8180   14.4420 C.2   197  CYS197      0.2296
    102  O          2.0380   19.2330   14.0630 O.2   197  CYS197     -0.2864
    103  CB         3.5690   19.6310   16.7590 C.3   197  CYS197      0.0983
    104  SG         4.3910   20.8200   17.8690 S.3   197  CYS197     -0.0798
    105  N          7.7340   17.0630    8.2590 N.3   202  LYS202     -0.1245
    106  CA         8.4750   17.8290    9.2730 C.3   202  LYS202      0.1561
    107  C          8.4740   17.0450   10.5820 C.2   202  LYS202      0.2260
    108  O          7.7660   17.4260   11.5110 O.2   202  LYS202     -0.2867
    109  CB         7.8840   19.2120    9.4910 C.3   202  LYS202      0.0271
    110  CG         7.9820   20.1780    8.3280 C.3   202  LYS202      0.0035
    111  CD         9.3970   20.6320    8.0070 C.3   202  LYS202      0.0206
    112  CE         9.4430   21.2920    6.6330 C.3   202  LYS202      0.1093
    113  NZ        10.1430   20.4530    5.6210 N.3   202  LYS202     -0.1314
    114  N          9.7790   15.0700   14.1410 N.3   204  GLY204     -0.1210
    115  CA        10.4560   15.5910   15.3100 C.3   204  GLY204      0.1956
    116  C         11.9580   15.4000   15.1540 C.2   204  GLY204      0.2612
    117  O         12.4140   14.4110   14.5870 O.2   204  GLY204     -0.2717
    118  N         12.7000   16.3540   15.6880 N.am  205  VAL205     -0.1965
    119  CA        14.1420   16.3580   15.8250 C.3   205  VAL205      0.1727
    120  C         14.5020   16.2510   17.3150 C.2   205  VAL205      0.2616
    121  O         13.9390   16.9490   18.1700 O.2   205  VAL205     -0.2715
    122  CB        14.7730   17.6000   15.1800 C.3   205  VAL205      0.0290
    123  CG1       16.2830   17.4810   15.0940 C.3   205  VAL205      0.0023
    124  CG2       14.1840   17.7880   13.7780 C.3   205  VAL205      0.0023
    125  N         15.4110   15.3150   17.5700 N.am  206  TYR206     -0.1974
    126  CA        15.8140   14.8260   18.8700 C.3   206  TYR206      0.1639
    127  C         17.3210   14.7930   19.0540 C.2   206  TYR206      0.2290
    128  O         18.0880   14.4400   18.1600 O.2   206  TYR206     -0.2864
    129  CB        15.2530   13.4030   19.0350 C.3   206  TYR206      0.0560
    130  CG        13.7570   13.3960   18.8650 C.ar  206  TYR206     -0.0198
    131  CD1       13.1250   12.9920   17.7040 C.ar  206  TYR206     -0.0009
    132  CD2       13.0000   13.8300   19.9470 C.ar  206  TYR206     -0.0009
    133  CE1       11.7420   13.0120   17.6060 C.ar  206  TYR206      0.0417
    134  CE2       11.6170   13.8580   19.8460 C.ar  206  TYR206      0.0417
    135  CZ        11.0040   13.4530   18.6920 C.ar  206  TYR206      0.1957
    136  OH         9.6220   13.4950   18.6550 O.3   206  TYR206     -0.2866
@<TRIPOS>BOND
     1   113   112    1
     2   112   111    1
     3   111   110    1
     4   105   106    1
     5   110   109    1
     6   106   109    1
     7   106   107    1
     8    94    93    1
     9   107   108    2
    10    93    90    1
    11    92    91    2
    12    90    91    1
    13    90    89    1
    14    84    83   ar
    15    84    82   ar
    16    91    95   am
    17    83    81   ar
    18    89    87   am
    19    82    80   ar
    20    95    96    1
    21   124   122    1
    22   102   101    2
    23   114   115    1
    24    96    97    1
    25    87    86    1
    26    87    88    2
    27    81    78   ar
    28   101   100    1
    29   117   116    2
    30    99    97   am
    31    99   100    1
    32    97    98    2
    33    86    85    1
    34    80    78   ar
    35    80    79   ar
    36   123   122    1
    37    30    28   ar
    38   116   115    1
    39   116   118   am
    40   122   119    1
    41   100   103    1
    42    78    76   ar
    43   118   119    1
    44    28    27    1
    45    28    29   ar
    46   119   120    1
    47    27    24    1
    48    85    73   am
    49    79    77   ar
    50    23    24    1
    51    76    77   ar
    52    76    75    1
    53   103   104    1
    54    74    73    2
    55    24    25    1
    56    73    72    1
    57   120   125   am
    58   120   121    2
    59   125   126    1
    60   133   131   ar
    61   133   135   ar
    62    75    72    1
    63   131   130   ar
    64    17    19   ar
    65    17    16   ar
    66   104    42    1
    67    11    12    1
    68    72    71    1
    69    19    21   ar
    70   128   127    2
    71    25    31   am
    72    25    26    2
    73    15    16    1
    74    15    12    1
    75    34    33    2
    76   136   135    1
    77   135   134   ar
    78    31    32    1
    79   130   129    1
    80   130   132   ar
    81   126   129    1
    82   126   127    1
    83    71    67   am
    84    16    18   ar
    85    12    13    1
    86    13    14    2
    87    21    22    1
    88    21    20   ar
    89    42    41    1
    90    33    32    1
    91    33    37   am
    92   134   132   ar
    93    50    49    2
    94    32    35    1
    95    36    35    1
    96    67    68    2
    97    67    66    1
    98    18    20   ar
    99    70    69    1
   100    41    38    1
   101    69    66    1
   102    38    37    1
   103    38    39    1
   104    66    65    1
   105    49    51   am
   106    49    48    1
   107    65    60   am
   108    43    39   am
   109    43    44    1
   110    39    40    2
   111    48    47    1
   112    63    62    1
   113    47    44    1
   114    60    59    1
   115    60    61    2
   116    59    62    1
   117    59    58    1
   118    44    45    1
   119    62    64    1
   120     9     7   ar
   121     9    10   ar
   122     7     6   ar
   123    45    46    2
   124    10     8   ar
   125     6     5    1
   126     6     8   ar
   127    57    56    1
   128     5     2    1
   129    53    52    1
   130    53    56    1
   131    53    54    1
   132     2     1    1
   133     2     3    1
   134    54    55    2
   135     4     3    2
