@<TRIPOS>MOLECULE
tmp/1y5mA01.pdb
 112 101 0 0 0
SMALL
GASTEIGER

@<TRIPOS>ATOM
      1  N         76.0180   57.8200   46.4100 N.3   102  LEU102     -0.1245
      2  CA        74.5560   57.8370   46.4070 C.3   102  LEU102      0.1561
      3  C         74.0020   59.1090   47.0350 C.2   102  LEU102      0.2260
      4  O         74.4040   59.4870   48.1260 O.2   102  LEU102     -0.2867
      5  CB        73.9760   56.6500   47.1810 C.3   102  LEU102      0.0270
      6  CG        74.1870   55.1940   46.7700 C.3   102  LEU102      0.0019
      7  CD1       72.8790   54.4520   46.9620 C.3   102  LEU102      0.0001
      8  CD2       74.6370   55.0950   45.3390 C.3   102  LEU102      0.0001
      9  N         75.1890   47.2630   35.0570 N.3   146  SER146     -0.1202
     10  CA        74.5380   46.7790   36.2630 C.3   146  SER146      0.2020
     11  C         73.0350   46.8080   36.0940 C.2   146  SER146      0.2619
     12  O         72.5270   47.1610   35.0310 O.2   146  SER146     -0.2717
     13  CB        74.9230   47.6390   37.4600 C.3   146  SER146      0.2103
     14  OG        74.5690   48.9840   37.2580 O.3   146  SER146     -0.2182
     15  N         72.3300   46.4240   37.1500 N.am  147  LEU147     -0.1965
     16  CA        70.8810   46.4310   37.1180 C.3   147  LEU147      0.1728
     17  C         70.4340   47.8650   36.8340 C.2   147  LEU147      0.2616
     18  O         69.4510   48.0900   36.1560 O.2   147  LEU147     -0.2715
     19  CB        70.3120   45.9520   38.4620 C.3   147  LEU147      0.0311
     20  CG        70.7550   44.5890   39.0100 C.3   147  LEU147      0.0022
     21  CD1       69.7660   44.1480   40.0780 C.3   147  LEU147      0.0001
     22  CD2       70.7980   43.5390   37.8960 C.3   147  LEU147      0.0001
     23  N         71.1840   48.8260   37.3620 N.am  148  ALA148     -0.1977
     24  CA        70.8720   50.2360   37.1660 C.3   148  ALA148      0.1597
     25  C         71.0010   50.6620   35.7040 C.2   148  ALA148      0.2287
     26  O         70.7230   51.8000   35.3630 O.2   148  ALA148     -0.2864
     27  CB        71.7660   51.1000   38.0430 C.3   148  ALA148      0.0319
     28  N         67.2630   49.0510   34.8160 N.3   151  MET151     -0.1245
     29  CA        66.1320   49.5060   35.6050 C.3   151  MET151      0.1570
     30  C         66.5410   50.7390   36.3890 C.2   151  MET151      0.2261
     31  O         67.7060   51.0970   36.4610 O.2   151  MET151     -0.2867
     32  CB        65.6770   48.4180   36.5750 C.3   151  MET151      0.0387
     33  CG        66.6600   48.1840   37.7080 C.3   151  MET151      0.0595
     34  SD        66.1080   46.9330   38.8710 S.3   151  MET151     -0.1393
     35  CE        65.2770   47.9640   40.0940 C.3   151  MET151      0.0692
     36  N         66.4810   53.0580   40.0110 N.3   153  GLN153     -0.1245
     37  CA        66.4690   53.0460   41.4750 C.3   153  GLN153      0.1566
     38  C         66.8890   54.4530   41.8830 C.2   153  GLN153      0.2260
     39  O         67.6820   55.0750   41.2260 O.2   153  GLN153     -0.2867
     40  CB        67.4920   52.0540   42.0240 C.3   153  GLN153      0.0367
     41  CG        67.5030   50.7020   41.3490 C.3   153  GLN153      0.0905
     42  CD        68.6170   49.8070   41.8660 C.2   153  GLN153      0.2608
     43  OE1       68.8350   48.7050   41.3520 O.2   153  GLN153     -0.2717
     44  NE2       69.3280   50.2730   42.8940 N.am  153  GLN153     -0.0878
     45  N         71.0280   57.4750   42.0960 N.3   156  ILE156     -0.1245
     46  CA        72.1460   57.2150   41.1870 C.3   156  ILE156      0.1561
     47  C         71.8270   57.6140   39.7450 C.2   156  ILE156      0.2260
     48  O         72.3130   57.0020   38.8020 O.2   156  ILE156     -0.2867
     49  CB        72.5150   55.7240   41.1980 C.3   156  ILE156      0.0252
     50  CG1       71.2810   54.8910   40.8340 C.3   156  ILE156      0.0019
     51  CG2       73.0470   55.3310   42.5670 C.3   156  ILE156      0.0019
     52  CD1       71.4990   53.3930   40.8990 C.3   156  ILE156      0.0001
     53  N         74.9280   57.9210   37.2480 N.3   159  TYR159     -0.1241
     54  CA        75.4860   56.6040   37.0110 C.3   159  TYR159      0.1605
     55  C         74.5180   55.8190   36.1310 C.2   159  TYR159      0.2264
     56  O         74.9030   55.2180   35.1260 O.2   159  TYR159     -0.2867
     57  CB        75.6650   55.8920   38.3530 C.3   159  TYR159      0.0534
     58  CG        76.0660   54.4410   38.2590 C.ar  159  TYR159     -0.0201
     59  CD1       77.3940   54.0740   38.0470 C.ar  159  TYR159     -0.0009
     60  CD2       75.1210   53.4310   38.4200 C.ar  159  TYR159     -0.0009
     61  CE1       77.7750   52.7310   38.0050 C.ar  159  TYR159      0.0417
     62  CE2       75.4870   52.0820   38.3780 C.ar  159  TYR159      0.0417
     63  CZ        76.8160   51.7400   38.1720 C.ar  159  TYR159      0.1957
     64  OH        77.1800   50.4090   38.1370 O.3   159  TYR159     -0.2866
     65  N         74.3710   42.6230   39.6020 N.3   192  GLY192     -0.1210
     66  CA        73.6320   43.0440   40.7760 C.3   192  GLY192      0.1956
     67  C         74.6790   43.4820   41.8060 C.2   192  GLY192      0.2611
     68  O         75.8750   43.6070   41.4840 O.2   192  GLY192     -0.2717
     69  N         74.2570   43.6980   43.0460 N.am  193  LEU193     -0.1979
     70  CA        75.1750   44.1330   44.0940 C.3   193  LEU193      0.1596
     71  C         76.3370   43.1670   44.3370 C.2   193  LEU193      0.2287
     72  O         76.1310   42.0040   44.6280 O.2   193  LEU193     -0.2864
     73  CB        74.4120   44.3460   45.4090 C.3   193  LEU193      0.0297
     74  CG        75.2420   44.9600   46.5450 C.3   193  LEU193      0.0022
     75  CD1       75.6660   46.3760   46.1490 C.3   193  LEU193      0.0001
     76  CD2       74.4310   44.9910   47.8410 C.3   193  LEU193      0.0001
     77  N         76.8800   52.0880   49.9280 N.3   203  ILE203     -0.1245
     78  CA        75.4700   51.8880   50.2390 C.3   203  ILE203      0.1561
     79  C         75.1980   51.7830   51.7400 C.2   203  ILE203      0.2260
     80  O         74.0700   51.5680   52.1570 O.2   203  ILE203     -0.2867
     81  CB        74.9050   50.6160   49.5470 C.3   203  ILE203      0.0252
     82  CG1       75.5680   49.3650   50.1200 C.3   203  ILE203      0.0019
     83  CG2       75.1230   50.6960   48.0480 C.3   203  ILE203      0.0019
     84  CD1       74.9430   48.0790   49.6290 C.3   203  ILE203      0.0001
     85  N         71.3270   51.2130   51.6190 N.3   207  ILE207     -0.1245
     86  CA        70.7570   50.0160   51.0310 C.3   207  ILE207      0.1561
     87  C         71.0350   48.7490   51.8210 C.2   207  ILE207      0.2260
     88  O         72.1470   48.4810   52.2300 O.2   207  ILE207     -0.2867
     89  CB        71.2150   49.8660   49.5700 C.3   207  ILE207      0.0252
     90  CG1       70.5360   50.9590   48.7390 C.3   207  ILE207      0.0019
     91  CG2       70.8620   48.4700   49.0350 C.3   207  ILE207      0.0019
     92  CD1       71.0980   51.1210   47.3390 C.3   207  ILE207      0.0001
     93  N         70.0680   45.4050   50.7140 N.3   209  ALA209     -0.1245
     94  CA        70.2910   44.1930   49.9210 C.3   209  ALA209      0.1562
     95  C         71.5730   43.4000   50.2040 C.2   209  ALA209      0.2260
     96  O         72.5810   43.9480   50.6390 O.2   209  ALA209     -0.2867
     97  CB        70.2130   44.5380   48.4310 C.3   209  ALA209      0.0290
     98  N         73.3680   38.1260   39.6430 N.3   235  ASP235     -0.1239
     99  CA        72.7200   38.7150   40.8110 C.3   235  ASP235      0.1674
    100  C         72.2670   37.5800   41.7210 C.2   235  ASP235      0.2266
    101  O         72.1230   36.4560   41.2710 O.2   235  ASP235     -0.2867
    102  CB        71.5060   39.5290   40.3520 C.3   235  ASP235      0.1410
    103  CG        70.8430   40.2800   41.4810 C.2   235  ASP235      0.3668
    104  OD1       71.5060   41.1560   42.0780 O.co2 235  ASP235     -0.2456
    105  OD2       69.6590   39.9940   41.7730 O.co2 235  ASP235     -0.2456
    106  N         66.0090   37.9410   38.4930 N.3   240  THR240     -0.1218
    107  CA        66.5670   39.1190   37.8390 C.3   240  THR240      0.1862
    108  C         66.7430   38.9710   36.3340 C.2   240  THR240      0.2287
    109  O         66.3240   39.8340   35.5810 O.2   240  THR240     -0.2866
    110  CB        67.8980   39.5340   38.4990 C.3   240  THR240      0.1770
    111  OG1       67.6650   39.8130   39.8850 O.3   240  THR240     -0.2211
    112  CG2       68.4540   40.7790   37.8440 C.3   240  THR240      0.0375
@<TRIPOS>BOND
     1    28    29    1
     2    12    11    2
     3     9    10    1
     4    56    55    2
     5    26    25    2
     6   109   108    2
     7    29    30    1
     8    29    32    1
     9    25    24    1
    10    11    10    1
    11    11    15   am
    12    55    54    1
    13    18    17    2
    14    10    13    1
    15   108   107    1
    16    30    31    2
    17    32    33    1
    18    17    16    1
    19    17    23   am
    20    54    53    1
    21    54    57    1
    22    16    15    1
    23    16    19    1
    24    24    23    1
    25    24    27    1
    26    14    13    1
    27    33    34    1
    28   107   106    1
    29   107   110    1
    30   112   110    1
    31    22    20    1
    32    61    59   ar
    33    61    63   ar
    34    59    58   ar
    35    64    63    1
    36    63    62   ar
    37    58    57    1
    38    58    60   ar
    39    62    60   ar
    40    19    20    1
    41   110   111    1
    42    48    47    2
    43    34    35    1
    44    20    21    1
    45    65    66    1
    46    98    99    1
    47    47    46    1
    48    36    37    1
    49   102    99    1
    50   102   103    1
    51    66    67    1
    52    99   100    1
    53    50    52    1
    54    50    49    1
    55    46    49    1
    56    46    45    1
    57    49    51    1
    58    39    38    2
    59   101   100    2
    60    41    42    1
    61    41    40    1
    62    43    42    2
    63    37    38    1
    64    37    40    1
    65   103   105   ar
    66   103   104   ar
    67    68    67    2
    68    67    69   am
    69    42    44   am
    70    69    70    1
    71    70    71    1
    72    70    73    1
    73    71    72    2
    74     8     6    1
    75    73    74    1
    76    75    74    1
    77     2     1    1
    78     2     3    1
    79     2     5    1
    80    74    76    1
    81     6     7    1
    82     6     5    1
    83     3     4    2
    84    92    90    1
    85    83    81    1
    86    97    94    1
    87    90    89    1
    88    91    89    1
    89    81    82    1
    90    81    78    1
    91    89    86    1
    92    84    82    1
    93    94    95    1
    94    94    93    1
    95    77    78    1
    96    95    96    2
    97    78    79    1
    98    86    85    1
    99    86    87    1
   100    79    80    2
   101    87    88    2
