@<TRIPOS>MOLECULE
tmp/1y5mB01.pdb
 104 93 0 0 0
SMALL
GASTEIGER

@<TRIPOS>ATOM
      1  N         71.5610   58.7270    9.3440 N.3   102  LEU102     -0.1245
      2  CA        71.7180   57.2940    9.4840 C.3   102  LEU102      0.1561
      3  C         73.0530   56.8520    8.8890 C.2   102  LEU102      0.2260
      4  O         73.4040   57.2420    7.7910 O.2   102  LEU102     -0.2867
      5  CB        70.5660   56.5760    8.7750 C.3   102  LEU102      0.0270
      6  CG        69.1630   56.6250    9.3920 C.3   102  LEU102      0.0019
      7  CD1       69.0590   55.5730   10.4650 C.3   102  LEU102      0.0001
      8  CD2       68.8660   58.0090    9.9580 C.3   102  LEU102      0.0001
      9  N         61.4010   55.2930   19.8390 N.3   147  LEU147     -0.1231
     10  CA        61.4880   53.8540   19.9880 C.3   147  LEU147      0.1693
     11  C         62.9530   53.5050   20.2280 C.2   147  LEU147      0.2591
     12  O         63.2690   52.6070   20.9820 O.2   147  LEU147     -0.2718
     13  CB        60.9910   53.1420   18.7240 C.3   147  LEU147      0.0284
     14  CG        59.5470   53.3570   18.2500 C.3   147  LEU147      0.0019
     15  CD1       59.1580   52.1800   17.3680 C.3   147  LEU147      0.0001
     16  CD2       58.5770   53.4380   19.4310 C.3   147  LEU147      0.0001
     17  N         63.8390   54.2620   19.5910 N.am  148  ALA148     -0.1980
     18  CA        65.2700   54.0330   19.7090 C.3   148  ALA148      0.1597
     19  C         65.7940   54.3150   21.1100 C.2   148  ALA148      0.2287
     20  O         66.9760   54.1970   21.3640 O.2   148  ALA148     -0.2864
     21  CB        66.0180   54.8740   18.6870 C.3   148  ALA148      0.0319
     22  N         64.5770   50.4940   22.5010 N.3   151  MET151     -0.1245
     23  CA        65.0560   49.3470   21.7570 C.3   151  MET151      0.1570
     24  C         66.2140   49.7860   20.8750 C.2   151  MET151      0.2261
     25  O         66.5430   50.9500   20.8010 O.2   151  MET151     -0.2867
     26  CB        63.9440   48.7820   20.8800 C.3   151  MET151      0.0387
     27  CG        63.5390   49.7410   19.7740 C.3   151  MET151      0.0595
     28  SD        62.3250   49.0520   18.6870 S.3   151  MET151     -0.1393
     29  CE        63.3740   48.1190   17.5710 C.3   151  MET151      0.0692
     30  N         68.2660   49.6290   16.9910 N.3   153  GLN153     -0.1245
     31  CA        68.1710   49.5140   15.5270 C.3   153  GLN153      0.1566
     32  C         69.4990   50.0030   14.9490 C.2   153  GLN153      0.2260
     33  O         70.0970   50.9150   15.4690 O.2   153  GLN153     -0.2867
     34  CB        67.0520   50.4010   14.9770 C.3   153  GLN153      0.0367
     35  CG        65.6630   50.0950   15.5020 C.3   153  GLN153      0.0905
     36  CD        64.6060   51.0320   14.9300 C.2   153  GLN153      0.2608
     37  OE1       63.4260   50.9730   15.3140 O.2   153  GLN153     -0.2717
     38  NE2       65.0170   51.8980   14.0050 N.am  153  GLN153     -0.0878
     39  N         72.1660   54.2470   14.1750 N.3   156  ILE156     -0.1245
     40  CA        71.8680   55.3960   15.0340 C.3   156  ILE156      0.1561
     41  C         72.3930   55.1920   16.4560 C.2   156  ILE156      0.2260
     42  O         71.7380   55.5650   17.4300 O.2   156  ILE156     -0.2867
     43  CB        70.3440   55.6770   15.1160 C.3   156  ILE156      0.0252
     44  CG1       69.6050   54.4220   15.5890 C.3   156  ILE156      0.0019
     45  CG2       69.8240   56.1390   13.7730 C.3   156  ILE156      0.0019
     46  CD1       68.1200   54.6040   15.7400 C.3   156  ILE156      0.0001
     47  N         72.6330   58.5590   18.6830 N.3   159  TYR159     -0.1241
     48  CA        71.2940   59.0270   18.9790 C.3   159  TYR159      0.1605
     49  C         70.6290   58.1140   20.0200 C.2   159  TYR159      0.2264
     50  O         70.0700   58.5730   21.0140 O.2   159  TYR159     -0.2867
     51  CB        70.4780   59.0330   17.6810 C.3   159  TYR159      0.0534
     52  CG        69.0100   59.3520   17.8420 C.ar  159  TYR159     -0.0201
     53  CD1       68.5720   60.6690   17.9950 C.ar  159  TYR159     -0.0009
     54  CD2       68.0580   58.3410   17.8250 C.ar  159  TYR159     -0.0009
     55  CE1       67.2140   60.9700   18.1250 C.ar  159  TYR159      0.0417
     56  CE2       66.7010   58.6240   17.9550 C.ar  159  TYR159      0.0417
     57  CZ        66.2860   59.9410   18.1030 C.ar  159  TYR159      0.1957
     58  OH        64.9410   60.2240   18.2260 O.3   159  TYR159     -0.2866
     59  N         57.2070   56.7970   17.5910 N.3   192  GLY192     -0.1210
     60  CA        57.5880   55.9580   16.4700 C.3   192  GLY192      0.1956
     61  C         58.0070   56.9160   15.3610 C.2   192  GLY192      0.2611
     62  O         58.2880   58.0890   15.6290 O.2   192  GLY192     -0.2717
     63  N         58.0490   56.4440   14.1210 N.am  193  LEU193     -0.1979
     64  CA        58.4360   57.3050   13.0030 C.3   193  LEU193      0.1596
     65  C         57.3890   58.3950   12.7670 C.2   193  LEU193      0.2287
     66  O         56.2320   58.0990   12.4980 O.2   193  LEU193     -0.2864
     67  CB        58.6040   56.4730   11.7300 C.3   193  LEU193      0.0297
     68  CG        58.9120   57.2510   10.4460 C.3   193  LEU193      0.0022
     69  CD1       60.1810   58.0690   10.6240 C.3   193  LEU193      0.0001
     70  CD2       59.0580   56.2790    9.2820 C.3   193  LEU193      0.0001
     71  N         62.7670   63.8430    9.3740 N.3   199  ALA199     -0.1245
     72  CA        62.7430   62.3940    9.4940 C.3   199  ALA199      0.1562
     73  C         62.6590   61.7530    8.1170 C.2   199  ALA199      0.2260
     74  O         63.5290   60.9760    7.7340 O.2   199  ALA199     -0.2867
     75  CB        61.5540   61.9560   10.3480 C.3   199  ALA199      0.0290
     76  N         65.6880   59.2440    6.3940 N.3   203  ILE203     -0.1245
     77  CA        65.5570   57.8040    6.2010 C.3   203  ILE203      0.1561
     78  C         65.4350   57.4050    4.7320 C.2   203  ILE203      0.2260
     79  O         65.4840   56.2280    4.4020 O.2   203  ILE203     -0.2867
     80  CB        64.3260   57.2440    6.9460 C.3   203  ILE203      0.0252
     81  CG1       63.0450   57.8290    6.3500 C.3   203  ILE203      0.0019
     82  CG2       64.4240   57.5620    8.4320 C.3   203  ILE203      0.0019
     83  CD1       61.7730   57.3080    6.9900 C.3   203  ILE203      0.0001
     84  N         65.5260   53.4820    5.2290 N.3   207  ILE207     -0.1245
     85  CA        64.4560   52.8180    5.9550 C.3   207  ILE207      0.1561
     86  C         63.1250   53.0810    5.2820 C.2   207  ILE207      0.2260
     87  O         62.7460   54.2230    5.0650 O.2   207  ILE207     -0.2867
     88  CB        64.3580   53.3130    7.4130 C.3   207  ILE207      0.0252
     89  CG1       65.6260   52.9440    8.1840 C.3   207  ILE207      0.0019
     90  CG2       63.1370   52.6940    8.0850 C.3   207  ILE207      0.0019
     91  CD1       65.6130   53.4040    9.6410 C.3   207  ILE207      0.0001
     92  N         59.4040   52.6390    5.9310 N.3   209  ALA209     -0.1245
     93  CA        58.3330   52.3540    6.8730 C.3   209  ALA209      0.1562
     94  C         57.2840   53.4580    6.8190 C.2   209  ALA209      0.2260
     95  O         57.5230   54.5160    6.2570 O.2   209  ALA209     -0.2867
     96  CB        58.9000   52.2370    8.2850 C.3   209  ALA209      0.0290
     97  N         52.7350   55.5170   18.1750 N.3   235  ASP235     -0.1239
     98  CA        53.2540   54.7760   17.0320 C.3   235  ASP235      0.1674
     99  C         52.1060   54.1530   16.2490 C.2   235  ASP235      0.2266
    100  O         50.9900   54.0800   16.7380 O.2   235  ASP235     -0.2867
    101  CB        54.1830   53.6670   17.5350 C.3   235  ASP235      0.1410
    102  CG        54.9470   52.9930   16.4210 C.2   235  ASP235      0.3668
    103  OD1       55.7010   53.7010   15.7160 O.co2 235  ASP235     -0.2456
    104  OD2       54.7970   51.7610   16.2530 O.co2 235  ASP235     -0.2456
@<TRIPOS>BOND
     1    79    78    2
     2    78    77    1
     3    87    86    2
     4    84    85    1
     5    86    85    1
     6    92    93    1
     7    85    88    1
     8    77    76    1
     9    77    80    1
    10    95    94    2
    11    81    80    1
    12    81    83    1
    13    94    93    1
    14    93    96    1
    15    80    82    1
    16    88    90    1
    17    88    89    1
    18    74    73    2
    19     4     3    2
    20    73    72    1
    21    89    91    1
    22     5     6    1
    23     5     2    1
    24     3     2    1
    25    70    68    1
    26     1     2    1
    27    71    72    1
    28     6     8    1
    29     6     7    1
    30    72    75    1
    31    68    69    1
    32    68    67    1
    33    67    64    1
    34    66    65    2
    35    65    64    1
    36    64    63    1
    37    45    43    1
    38    38    36   am
    39    63    61   am
    40    39    40    1
    41    36    37    2
    42    36    35    1
    43    32    33    2
    44    32    31    1
    45    34    35    1
    46    34    31    1
    47    40    43    1
    48    40    41    1
    49    43    44    1
    50    61    62    2
    51    61    60    1
    52    31    30    1
    53    44    46    1
    54   103   102   ar
    55    99   100    2
    56    99    98    1
    57   104   102   ar
    58   102   101    1
    59    41    42    2
    60    60    59    1
    61    98   101    1
    62    98    97    1
    63    15    14    1
    64    29    28    1
    65    51    52    1
    66    51    48    1
    67    54    52   ar
    68    54    56   ar
    69    52    53   ar
    70    56    57   ar
    71    53    55   ar
    72    57    55   ar
    73    57    58    1
    74    14    13    1
    75    14    16    1
    76    47    48    1
    77    28    27    1
    78    21    18    1
    79    13    10    1
    80    48    49    1
    81    17    18    1
    82    17    11   am
    83    18    19    1
    84    27    26    1
    85     9    10    1
    86    10    11    1
    87    49    50    2
    88    11    12    2
    89    25    24    2
    90    24    23    1
    91    26    23    1
    92    19    20    2
    93    23    22    1
