@<TRIPOS>MOLECULE
tmp/1y5nC03.pdb
 80 73 0 0 0
SMALL
GASTEIGER

@<TRIPOS>ATOM
      1  N       -149.7430   -3.7740   -7.5560 N.3    60  GLY60      -0.1210
      2  CA      -150.0320   -2.4920   -6.9340 C.3    60  GLY60       0.1956
      3  C       -150.0880   -1.4440   -8.0310 C.2    60  GLY60       0.2611
      4  O       -151.0460   -0.6710   -8.1420 O.2    60  GLY60      -0.2717
      5  N       -149.0490   -1.4390   -8.8580 N.am   61  ILE61      -0.1979
      6  CA      -148.9410   -0.5190   -9.9810 C.3    61  ILE61       0.1595
      7  C       -150.1270   -0.6220  -10.9470 C.2    61  ILE61       0.2287
      8  O       -150.6290    0.3920  -11.4300 O.2    61  ILE61      -0.2864
      9  CB      -147.6610   -0.8010  -10.7790 C.3    61  ILE61       0.0276
     10  CG1     -146.4370   -0.5710   -9.8950 C.3    61  ILE61       0.0022
     11  CG2     -147.6220    0.0580  -12.0180 C.3    61  ILE61       0.0022
     12  CD1     -145.1280   -1.0090  -10.5380 C.3    61  ILE61       0.0001
     13  N       -153.2640    0.9430   -9.4960 N.3    64  GLY64      -0.1210
     14  CA      -153.0070    2.3750   -9.5440 C.3    64  GLY64       0.1956
     15  C       -153.0750    2.9670  -10.9440 C.2    64  GLY64       0.2611
     16  O       -153.7510    3.9740  -11.1600 O.2    64  GLY64      -0.2717
     17  N       -152.3600    2.3620  -11.8920 N.am   65  HIS65      -0.1975
     18  CA      -152.3770    2.8310  -13.2730 C.3    65  HIS65       0.1656
     19  C       -153.7960    2.7450  -13.8240 C.2    65  HIS65       0.2291
     20  O       -154.2920    3.6930  -14.4320 O.2    65  HIS65      -0.2864
     21  CB      -151.4480    1.9860  -14.1510 C.3    65  HIS65       0.0771
     22  CG      -150.0110    2.3980  -14.0870 C.ar   65  HIS65       0.0820
     23  ND1     -149.3640    2.6360  -12.8960 N.ar   65  HIS65      -0.2267
     24  CD2     -149.0850    2.5810  -15.0590 C.ar   65  HIS65       0.1154
     25  CE1     -148.1020    2.9450  -13.1340 C.ar   65  HIS65       0.1986
     26  NE2     -147.9050    2.9160  -14.4370 N.ar   65  HIS65      -0.2212
     27  N       -156.1310    5.0120  -11.8660 N.3    68  GLY68      -0.1210
     28  CA      -155.5240    6.3290  -11.9570 C.3    68  GLY68       0.1956
     29  C       -155.7120    7.0730  -13.2680 C.2    68  GLY68       0.2611
     30  O       -155.9630    8.2770  -13.2650 O.2    68  GLY68      -0.2717
     31  N       -155.6000    6.3710  -14.3910 N.am   69  MET69      -0.1979
     32  CA      -155.7490    7.0120  -15.6920 C.3    69  MET69       0.1605
     33  C       -157.0110    6.6500  -16.4540 C.2    69  MET69       0.2287
     34  O       -157.1780    7.0790  -17.5910 O.2    69  MET69      -0.2864
     35  CB      -154.5590    6.6880  -16.5820 C.3    69  MET69       0.0413
     36  CG      -153.2270    7.1090  -16.0310 C.3    69  MET69       0.0598
     37  SD      -151.9520    6.5320  -17.1500 S.3    69  MET69      -0.1393
     38  CE      -151.7420    4.8320  -16.5970 C.3    69  MET69       0.0692
     39  N       -153.8820   12.4990   -5.3950 N.3    77  ALA77      -0.1245
     40  CA      -153.6290   11.3080   -6.1910 C.3    77  ALA77       0.1562
     41  C       -152.1390   11.1900   -6.4860 C.2    77  ALA77       0.2260
     42  O       -151.5550   10.1230   -6.3250 O.2    77  ALA77      -0.2867
     43  CB      -154.4170   11.3790   -7.4900 C.3    77  ALA77       0.0290
     44  N       -150.0660    9.8610   -3.7580 N.3    80  MET80      -0.1230
     45  CA      -150.2590    8.4230   -3.5890 C.3    80  MET80       0.1702
     46  C       -149.4180    7.6460   -4.5930 C.2    80  MET80       0.2592
     47  O       -148.7170    6.7050   -4.2310 O.2    80  MET80      -0.2718
     48  CB      -151.7250    8.0550   -3.7840 C.3    80  MET80       0.0401
     49  CG      -152.6390    8.5700   -2.7030 C.3    80  MET80       0.0596
     50  SD      -154.3440    8.1880   -3.1030 S.3    80  MET80      -0.1393
     51  CE      -154.3620    6.3910   -2.8050 C.3    80  MET80       0.0692
     52  N       -149.4980    8.0430   -5.8580 N.am   81  ALA81      -0.1980
     53  CA      -148.7390    7.3900   -6.9120 C.3    81  ALA81       0.1597
     54  C       -147.2520    7.3100   -6.5620 C.2    81  ALA81       0.2287
     55  O       -146.6300    6.2610   -6.7030 O.2    81  ALA81      -0.2864
     56  CB      -148.9310    8.1410   -8.2270 C.3    81  ALA81       0.0319
     57  N       -147.3200    5.3870   -2.6750 N.3    84  ALA84      -0.1231
     58  CA      -147.9570    4.0780   -2.7880 C.3    84  ALA84       0.1694
     59  C       -147.2980    3.3000   -3.9310 C.2    84  ALA84       0.2592
     60  O       -146.5880    2.3200   -3.6970 O.2    84  ALA84      -0.2718
     61  CB      -149.4540    4.2380   -3.0460 C.3    84  ALA84       0.0304
     62  N       -147.5250    3.7570   -5.1620 N.am   85  GLY85      -0.1957
     63  CA      -146.9470    3.1120   -6.3310 C.3    85  GLY85       0.1869
     64  C       -145.4260    3.0920   -6.3370 C.2    85  GLY85       0.2309
     65  O       -144.8140    2.2020   -6.9240 O.2    85  GLY85      -0.2863
     66  N       -149.0740   15.2860  -13.9760 N.3   147  MET147     -0.1245
     67  CA      -150.0260   14.1870  -13.9540 C.3   147  MET147      0.1570
     68  C       -151.2840   14.4980  -14.7510 C.2   147  MET147      0.2261
     69  O       -151.8330   13.6220  -15.4110 O.2   147  MET147     -0.2867
     70  CB      -150.4110   13.8310  -12.5160 C.3   147  MET147      0.0387
     71  CG      -151.3690   12.6470  -12.4240 C.3   147  MET147      0.0595
     72  SD      -151.7270   12.1130  -10.7390 S.3   147  MET147     -0.1393
     73  CE      -150.6760   10.6840  -10.5760 C.3   147  MET147      0.0692
     74  N       -152.6180   11.8860  -17.6340 N.3   151  VAL151     -0.1245
     75  CA      -153.9390   11.2770  -17.5210 C.3   151  VAL151      0.1561
     76  C       -154.8400   11.7990  -18.6420 C.2   151  VAL151      0.2260
     77  O       -155.7440   11.0990  -19.1050 O.2   151  VAL151     -0.2867
     78  CB      -154.5960   11.5780  -16.1490 C.3   151  VAL151      0.0252
     79  CG1     -155.9560   10.8860  -16.0590 C.3   151  VAL151      0.0019
     80  CG2     -153.6860   11.1030  -15.0160 C.3   151  VAL151      0.0019
@<TRIPOS>BOND
     1    77    76    2
     2    76    75    1
     3    74    75    1
     4    34    33    2
     5    75    78    1
     6    37    38    1
     7    37    36    1
     8    35    36    1
     9    35    32    1
    10    33    32    1
    11    78    79    1
    12    78    80    1
    13    32    31    1
    14    69    68    2
    15    24    26   ar
    16    24    22   ar
    17    68    67    1
    18    26    25   ar
    19    20    19    2
    20    31    29   am
    21    21    22    1
    22    21    18    1
    23    22    23   ar
    24    66    67    1
    25    67    70    1
    26    19    18    1
    27    18    17    1
    28    29    30    2
    29    29    28    1
    30    25    23   ar
    31    70    71    1
    32    71    72    1
    33    11     9    1
    34    28    27    1
    35    17    15   am
    36     8     7    2
    37    16    15    2
    38     7     6    1
    39    15    14    1
    40     9     6    1
    41     9    10    1
    42    72    73    1
    43    12    10    1
    44     6     5    1
    45    14    13    1
    46     5     3   am
    47    56    53    1
    48     4     3    2
    49     3     2    1
    50     1     2    1
    51    43    40    1
    52    65    64    2
    53    53    54    1
    54    53    52    1
    55    55    54    2
    56    41    42    2
    57    41    40    1
    58    64    63    1
    59    63    62    1
    60    40    39    1
    61    52    46   am
    62    62    59   am
    63    46    47    2
    64    46    45    1
    65    59    60    2
    66    59    58    1
    67    48    45    1
    68    48    49    1
    69    44    45    1
    70    50    51    1
    71    50    49    1
    72    61    58    1
    73    58    57    1
