@<TRIPOS>MOLECULE
tmp/1y5nC02.pdb
 113 115 0 0 0
SMALL
GASTEIGER

@<TRIPOS>ATOM
      1  N       -155.6770   -6.8600  -28.7590 N.3    20  LEU20      -0.1245
      2  CA      -156.9670   -7.5260  -28.6980 C.3    20  LEU20       0.1561
      3  C       -157.0440   -8.6870  -29.6790 C.2    20  LEU20       0.2260
      4  O       -157.1150   -9.8400  -29.2710 O.2    20  LEU20      -0.2867
      5  CB      -158.1030   -6.5540  -28.9900 C.3    20  LEU20       0.0270
      6  CG      -158.3690   -5.4480  -27.9780 C.3    20  LEU20       0.0019
      7  CD1     -159.8130   -5.0140  -28.1530 C.3    20  LEU20       0.0001
      8  CD2     -158.1480   -5.9380  -26.5540 C.3    20  LEU20       0.0001
      9  N       -154.7420  -11.5250  -28.8220 N.3    23  SER23      -0.1202
     10  CA      -155.1730  -12.3520  -27.7090 C.3    23  SER23       0.2020
     11  C       -156.2900  -13.2810  -28.1790 C.2    23  SER23       0.2618
     12  O       -156.2350  -14.4910  -27.9830 O.2    23  SER23      -0.2717
     13  CB      -155.6660  -11.4570  -26.5680 C.3    23  SER23       0.2103
     14  OG      -154.6080  -10.6520  -26.0560 O.3    23  SER23      -0.2182
     15  N       -157.2980  -12.6990  -28.8170 N.am   24  TRP24      -0.1975
     16  CA      -158.4420  -13.4400  -29.3330 C.3    24  TRP24       0.1640
     17  C       -158.0220  -14.6230  -30.2060 C.2    24  TRP24       0.2290
     18  O       -158.5350  -15.7280  -30.0540 O.2    24  TRP24      -0.2864
     19  CB      -159.3410  -12.5080  -30.1550 C.3    24  TRP24       0.0576
     20  CG      -160.6790  -13.1080  -30.5290 C.ar   24  TRP24       0.0006
     21  CD1     -161.0420  -14.4230  -30.4520 C.ar   24  TRP24       0.0946
     22  CD2     -161.8230  -12.4130  -31.0460 C.ar   24  TRP24       0.0152
     23  NE1     -162.3330  -14.5880  -30.8850 N.ar   24  TRP24      -0.2442
     24  CE2     -162.8370  -13.3720  -31.2570 C.ar   24  TRP24       0.0810
     25  CE3     -162.0890  -11.0710  -31.3520 C.ar   24  TRP24       0.0012
     26  CZ2     -164.1000  -13.0340  -31.7610 C.ar   24  TRP24       0.0191
     27  CZ3     -163.3510  -10.7330  -31.8550 C.ar   24  TRP24       0.0001
     28  CH2     -164.3370  -11.7120  -32.0530 C.ar   24  TRP24       0.0015
     29  N       -156.1720  -17.3400  -28.3300 N.3    27  TYR27      -0.1241
     30  CA      -157.0390  -18.0310  -27.4030 C.3    27  TYR27       0.1605
     31  C       -157.8310  -19.0770  -28.1640 C.2    27  TYR27       0.2264
     32  O       -158.0470  -20.1830  -27.6740 O.2    27  TYR27      -0.2867
     33  CB      -157.9870  -17.0520  -26.6990 C.3    27  TYR27       0.0534
     34  CG      -158.8540  -17.7200  -25.6400 C.ar   27  TYR27      -0.0201
     35  CD1     -160.0740  -18.3040  -25.9780 C.ar   27  TYR27      -0.0009
     36  CD2     -158.4250  -17.8120  -24.3130 C.ar   27  TYR27      -0.0009
     37  CE1     -160.8420  -18.9630  -25.0340 C.ar   27  TYR27       0.0417
     38  CE2     -159.1920  -18.4750  -23.3500 C.ar   27  TYR27       0.0417
     39  CZ      -160.4020  -19.0530  -23.7220 C.ar   27  TYR27       0.1957
     40  OH      -161.1600  -19.7490  -22.7940 O.3    27  TYR27      -0.2866
     41  N       -154.9110  -22.7110  -27.4950 N.3    31  GLN31      -0.1245
     42  CA      -155.1970  -23.1730  -26.1360 C.3    31  GLN31       0.1566
     43  C       -153.9870  -23.8520  -25.4850 C.2    31  GLN31       0.2260
     44  O       -153.6020  -23.5100  -24.3710 O.2    31  GLN31      -0.2867
     45  CB      -156.3860  -24.1490  -26.1360 C.3    31  GLN31       0.0367
     46  CG      -157.7520  -23.4690  -26.1530 C.3    31  GLN31       0.0905
     47  CD      -157.9900  -22.6200  -24.9120 C.2    31  GLN31       0.2608
     48  OE1     -158.1760  -23.1490  -23.8100 O.2    31  GLN31      -0.2717
     49  NE2     -157.9740  -21.2950  -25.0830 N.am   31  GLN31      -0.0878
     50  N       -151.5050  -21.5230  -24.1180 N.3    34  TRP34      -0.1241
     51  CA      -151.9940  -20.5400  -23.1620 C.3    34  TRP34       0.1605
     52  C       -151.8520  -20.9720  -21.7090 C.2    34  TRP34       0.2264
     53  O       -152.7780  -21.5190  -21.1280 O.2    34  TRP34      -0.2867
     54  CB      -153.4490  -20.2370  -23.4850 C.3    34  TRP34       0.0550
     55  CG      -154.0260  -19.0530  -22.8030 C.ar   34  TRP34       0.0003
     56  CD1     -154.4590  -18.9780  -21.5160 C.ar   34  TRP34       0.0946
     57  CD2     -154.3360  -17.7930  -23.4060 C.ar   34  TRP34       0.0152
     58  NE1     -155.0350  -17.7540  -21.2790 N.ar   34  TRP34      -0.2442
     59  CE2     -154.9710  -17.0060  -22.4250 C.ar   34  TRP34       0.0810
     60  CE3     -154.1420  -17.2540  -24.6850 C.ar   34  TRP34       0.0012
     61  CZ2     -155.4180  -15.7080  -22.6800 C.ar   34  TRP34       0.0191
     62  CZ3     -154.5860  -15.9670  -24.9400 C.ar   34  TRP34       0.0001
     63  CH2     -155.2190  -15.2070  -23.9400 C.ar   34  TRP34       0.0015
     64  N       -154.7950  -12.6630  -18.5220 N.3   198  TRP198     -0.1227
     65  CA      -156.2070  -12.7970  -18.8710 C.3   198  TRP198      0.1737
     66  C       -156.8750  -13.9050  -18.0560 C.2   198  TRP198      0.2596
     67  O       -158.0810  -13.8780  -17.8240 O.2   198  TRP198     -0.2718
     68  CB      -156.3830  -13.1830  -20.3450 C.3   198  TRP198      0.0564
     69  CG      -156.0840  -12.1510  -21.3700 C.ar  198  TRP198      0.0003
     70  CD1     -154.9620  -12.0590  -22.1440 C.ar  198  TRP198      0.0946
     71  CD2     -156.9580  -11.1070  -21.8040 C.ar  198  TRP198      0.0152
     72  NE1     -155.0880  -11.0250  -23.0410 N.ar  198  TRP198     -0.2442
     73  CE2     -156.3040  -10.4220  -22.8520 C.ar  198  TRP198      0.0810
     74  CE3     -158.2360  -10.6840  -21.4100 C.ar  198  TRP198      0.0012
     75  CZ2     -156.8840   -9.3340  -23.5100 C.ar  198  TRP198      0.0191
     76  CZ3     -158.8130   -9.6020  -22.0660 C.ar  198  TRP198      0.0001
     77  CH2     -158.1360   -8.9400  -23.1030 C.ar  198  TRP198      0.0015
     78  N       -156.0840  -14.8890  -17.6380 N.am  199  SER199     -0.1938
     79  CA      -156.6190  -16.0400  -16.9270 C.3   199  SER199      0.2055
     80  C       -156.6880  -16.0080  -15.4050 C.2   199  SER199      0.2643
     81  O       -157.0750  -17.0090  -14.7950 O.2   199  SER199     -0.2714
     82  CB      -155.8750  -17.2960  -17.3830 C.3   199  SER199      0.2130
     83  OG      -156.0000  -17.4680  -18.7870 O.3   199  SER199     -0.2179
     84  N       -156.3280  -14.8800  -14.7860 N.am  200  VAL200     -0.1963
     85  CA      -156.3930  -14.7680  -13.3250 C.3   200  VAL200      0.1712
     86  C       -157.6800  -15.4670  -12.8200 C.2   200  VAL200      0.2458
     87  O       -158.7990  -15.0190  -13.0820 O.2   200  VAL200     -0.2730
     88  CB      -156.3340  -13.2770  -12.8860 C.3   200  VAL200      0.0289
     89  CG1     -157.3320  -12.4540  -13.6710 C.3   200  VAL200      0.0023
     90  CG2     -156.6050  -13.1670  -11.4060 C.3   200  VAL200      0.0023
     91  N       -157.5140  -16.5850  -12.0870 N.am  201  PRO201     -0.2716
     92  CA      -158.5300  -17.4720  -11.4920 C.3   201  PRO201      0.1536
     93  C       -159.5140  -16.9150  -10.4620 C.2   201  PRO201      0.2598
     94  O       -159.6460  -17.4670   -9.3710 O.2   201  PRO201     -0.2715
     95  CB      -157.6840  -18.5930  -10.9000 C.3   201  PRO201      0.0310
     96  CG      -156.4980  -17.8480  -10.4070 C.3   201  PRO201      0.0237
     97  CD      -156.1760  -16.9260  -11.5690 C.3   201  PRO201      0.0939
     98  N       -160.2230  -15.8530  -10.8230 N.am  202  VAL202     -0.1964
     99  CA      -161.1780  -15.2360   -9.9100 C.3   202  VAL202      0.1727
    100  C       -162.3880  -16.1380   -9.6220 C.2   202  VAL202      0.2616
    101  O       -162.7980  -16.2790   -8.4640 O.2   202  VAL202     -0.2715
    102  CB      -161.6610  -13.8820  -10.4740 C.3   202  VAL202      0.0290
    103  CG1     -160.4680  -12.9630  -10.6930 C.3   202  VAL202      0.0023
    104  CG2     -162.4130  -14.0910  -11.7840 C.3   202  VAL202      0.0023
    105  N       -162.9280  -16.7540  -10.6700 N.am  203  GLU203     -0.1977
    106  CA      -164.0960  -17.6330  -10.5600 C.3   203  GLU203      0.1602
    107  C       -163.9490  -18.7690   -9.5270 C.2   203  GLU203      0.2287
    108  O       -164.9330  -19.3740   -9.0980 O.2   203  GLU203     -0.2864
    109  CB      -164.4420  -18.1850  -11.9590 C.3   203  GLU203      0.0415
    110  CG      -164.6160  -19.6980  -12.0660 C.3   203  GLU203      0.1163
    111  CD      -163.2890  -20.4450  -12.2370 C.2   203  GLU203      0.3649
    112  OE1     -163.3000  -21.6920  -12.3720 O.co2 203  GLU203     -0.2457
    113  OE2     -162.2230  -19.7880  -12.2370 O.co2 203  GLU203     -0.2457
@<TRIPOS>BOND
     1    28    27   ar
     2    28    26   ar
     3    27    25   ar
     4    26    24   ar
     5    25    22   ar
     6    24    22   ar
     7    24    23   ar
     8    22    20   ar
     9    23    21   ar
    10    20    21   ar
    11    20    19    1
    12    17    18    2
    13    17    16    1
    14    19    16    1
    15     3     4    2
    16     3     2    1
    17    16    15    1
    18     5     2    1
    19     5     6    1
    20     9    10    1
    21    15    11   am
    22     1     2    1
    23    29    30    1
    24    11    12    2
    25    11    10    1
    26    31    32    2
    27    31    30    1
    28     7     6    1
    29     6     8    1
    30    10    13    1
    31    41    42    1
    32    30    33    1
    33    33    34    1
    34    13    14    1
    35    46    45    1
    36    46    47    1
    37    45    42    1
    38    42    43    1
    39    35    34   ar
    40    35    37   ar
    41    34    36   ar
    42    43    44    2
    43    49    47   am
    44    37    39   ar
    45    62    60   ar
    46    62    63   ar
    47    47    48    2
    48    60    57   ar
    49    36    38   ar
    50    50    51    1
    51    63    61   ar
    52    39    38   ar
    53    39    40    1
    54    75    77   ar
    55    75    73   ar
    56    54    51    1
    57    54    55    1
    58    57    55   ar
    59    57    59   ar
    60    51    52    1
    61    77    76   ar
    62    72    73   ar
    63    72    70   ar
    64    73    71   ar
    65    55    56   ar
    66    61    59   ar
    67    59    58   ar
    68    70    69   ar
    69    76    74   ar
    70    71    74   ar
    71    71    69   ar
    72    52    53    2
    73    56    58   ar
    74    69    68    1
    75    68    65    1
    76    65    64    1
    77    65    66    1
    78    83    82    1
    79    66    67    2
    80    66    78   am
    81    78    79    1
    82    82    79    1
    83    79    80    1
    84    80    81    2
    85    80    84   am
    86    84    85    1
    87    89    88    1
    88    85    88    1
    89    85    86    1
    90    87    86    2
    91    88    90    1
    92    86    91   am
    93   112   111   ar
    94   113   111   ar
    95   111   110    1
    96    91    97    1
    97    91    92    1
    98   110   109    1
    99   109   106    1
   100   104   102    1
   101    97    96    1
   102    92    95    1
   103    92    93    1
   104    95    96    1
   105    98    93   am
   106    98    99    1
   107   103   102    1
   108   105   106    1
   109   105   100   am
   110   106   107    1
   111   102    99    1
   112    93    94    2
   113    99   100    1
   114   100   101    2
   115   107   108    2
