@<TRIPOS>MOLECULE
tmp/1y5rA01.pdb
 148 136 0 0 0
SMALL
GASTEIGER

@<TRIPOS>ATOM
      1  N         84.7850   51.9400   35.9860 N.3    97  ILE97      -0.1245
      2  CA        83.7600   52.9700   36.1610 C.3    97  ILE97       0.1561
      3  C         84.3210   54.0780   37.0110 C.2    97  ILE97       0.2260
      4  O         85.3410   53.9120   37.6560 O.2    97  ILE97      -0.2867
      5  CB        82.4750   52.4600   36.8650 C.3    97  ILE97       0.0252
      6  CG1       82.8200   51.8860   38.2330 C.3    97  ILE97       0.0019
      7  CG2       81.7540   51.4680   35.9860 C.3    97  ILE97       0.0019
      8  CD1       81.6090   51.5630   39.0640 C.3    97  ILE97       0.0001
      9  N         81.2000   56.6620   42.1670 N.3   100  THR100     -0.1218
     10  CA        79.7500   56.9280   42.1710 C.3   100  THR100      0.1862
     11  C         79.1380   56.7510   43.6030 C.2   100  THR100      0.2287
     12  O         79.4520   55.7970   44.2930 O.2   100  THR100     -0.2866
     13  CB        79.0040   55.9590   41.2100 C.3   100  THR100      0.1770
     14  OG1       79.1840   56.3830   39.8530 O.3   100  THR100     -0.2211
     15  CG2       77.5200   55.9140   41.5230 C.3   100  THR100      0.0375
     16  N         75.4740   56.9870   46.2730 N.3   102  LEU102     -0.1245
     17  CA        74.0160   56.9610   46.3010 C.3   102  LEU102      0.1561
     18  C         73.4550   58.2190   46.9010 C.2   102  LEU102      0.2260
     19  O         73.4800   58.3960   48.1150 O.2   102  LEU102     -0.2867
     20  CB        73.4910   55.7730   47.1080 C.3   102  LEU102      0.0270
     21  CG        73.8750   54.3570   46.6950 C.3   102  LEU102      0.0019
     22  CD1       72.9090   53.3710   47.3300 C.3   102  LEU102      0.0001
     23  CD2       73.8160   54.2290   45.2080 C.3   102  LEU102      0.0001
     24  N         74.9400   46.7170   34.8540 N.3   146  SER146     -0.1202
     25  CA        74.3130   46.4590   36.1500 C.3   146  SER146      0.2020
     26  C         72.8290   46.2460   35.9380 C.2   146  SER146      0.2619
     27  O         72.3350   46.4320   34.8410 O.2   146  SER146     -0.2717
     28  CB        74.5430   47.6580   37.0840 C.3   146  SER146      0.2103
     29  OG        73.7210   47.5950   38.2340 O.3   146  SER146     -0.2182
     30  N         72.1140   45.8390   36.9810 N.am  147  LEU147     -0.1965
     31  CA        70.6750   45.6620   36.8460 C.3   147  LEU147      0.1728
     32  C         70.1290   47.0270   36.5150 C.2   147  LEU147      0.2616
     33  O         69.1860   47.1600   35.7430 O.2   147  LEU147     -0.2715
     34  CB        70.0460   45.1740   38.1500 C.3   147  LEU147      0.0311
     35  CG        70.4720   43.8130   38.7040 C.3   147  LEU147      0.0022
     36  CD1       69.6920   43.5620   39.9640 C.3   147  LEU147      0.0001
     37  CD2       70.2300   42.7020   37.7070 C.3   147  LEU147      0.0001
     38  N         70.7470   48.0520   37.1000 N.am  148  ALA148     -0.1977
     39  CA        70.3340   49.4330   36.8730 C.3   148  ALA148      0.1597
     40  C         70.6460   49.8910   35.4400 C.2   148  ALA148      0.2287
     41  O         70.6280   51.0890   35.1420 O.2   148  ALA148     -0.2864
     42  CB        71.0140   50.3520   37.8740 C.3   148  ALA148      0.0319
     43  N         66.2640   52.3750   39.7540 N.3   153  GLN153     -0.1245
     44  CA        66.1190   52.5130   41.2100 C.3   153  GLN153      0.1566
     45  C         66.6630   53.8410   41.6470 C.2   153  GLN153      0.2260
     46  O         67.5840   54.3730   41.0490 O.2   153  GLN153     -0.2867
     47  CB        66.7950   51.3670   41.9760 C.3   153  GLN153      0.0367
     48  CG        68.2030   51.0080   41.5550 C.3   153  GLN153      0.0905
     49  CD        68.4400   49.6600   42.2330 C.2   153  GLN153      0.2608
     50  OE1       68.6820   49.5900   43.4360 O.2   153  GLN153     -0.2717
     51  NE2       68.3490   48.5800   41.4560 N.am  153  GLN153     -0.0878
     52  N         70.7910   56.7190   41.7980 N.3   156  ILE156     -0.1245
     53  CA        71.8830   56.4000   40.8790 C.3   156  ILE156      0.1561
     54  C         71.5470   56.7770   39.4280 C.2   156  ILE156      0.2260
     55  O         71.9160   56.0760   38.4960 O.2   156  ILE156     -0.2867
     56  CB        72.2520   54.9060   40.9430 C.3   156  ILE156      0.0252
     57  CG1       71.0880   54.0430   40.4710 C.3   156  ILE156      0.0019
     58  CG2       72.5860   54.5230   42.3620 C.3   156  ILE156      0.0019
     59  CD1       71.4010   52.5570   40.5060 C.3   156  ILE156      0.0001
     60  N         74.5990   57.1490   36.9110 N.3   159  TYR159     -0.1241
     61  CA        75.1680   55.8210   36.7260 C.3   159  TYR159      0.1605
     62  C         74.2110   55.0240   35.8330 C.2   159  TYR159      0.2264
     63  O         74.5840   54.5350   34.7570 O.2   159  TYR159     -0.2867
     64  CB        75.3030   55.1360   38.0770 C.3   159  TYR159      0.0534
     65  CG        75.7190   53.6900   38.0180 C.ar  159  TYR159     -0.0201
     66  CD1       77.0440   53.3290   37.7910 C.ar  159  TYR159     -0.0009
     67  CD2       74.7930   52.6770   38.2470 C.ar  159  TYR159     -0.0009
     68  CE1       77.4410   51.9920   37.8050 C.ar  159  TYR159      0.0417
     69  CE2       75.1750   51.3390   38.2580 C.ar  159  TYR159      0.0417
     70  CZ        76.5010   51.0050   38.0410 C.ar  159  TYR159      0.1957
     71  OH        76.8780   49.6840   38.0850 O.3   159  TYR159     -0.2866
     72  N         74.7790   42.5370   35.9040 N.3   191  LEU191     -0.1231
     73  CA        75.1080   42.1260   37.2560 C.3   191  LEU191      0.1693
     74  C         74.2320   42.6730   38.3190 C.2   191  LEU191      0.2593
     75  O         73.7850   43.8220   38.2500 O.2   191  LEU191     -0.2718
     76  CB        76.5510   42.5270   37.5760 C.3   191  LEU191      0.0284
     77  CG        77.7490   41.7200   37.0690 C.3   191  LEU191      0.0019
     78  CD1       77.6180   41.4080   35.5840 C.3   191  LEU191      0.0001
     79  CD2       79.0210   42.5190   37.3500 C.3   191  LEU191      0.0001
     80  N         73.9950   41.8410   39.3320 N.am  192  GLY192     -0.1942
     81  CA        73.2160   42.2390   40.4870 C.3   192  GLY192      0.2014
     82  C         74.2160   42.7380   41.5190 C.2   192  GLY192      0.2639
     83  O         75.4050   42.8130   41.2290 O.2   192  GLY192     -0.2714
     84  N         73.7540   43.0740   42.7220 N.am  193  LEU193     -0.1963
     85  CA        74.6450   43.5750   43.7750 C.3   193  LEU193      0.1728
     86  C         75.7360   42.5850   44.0520 C.2   193  LEU193      0.2616
     87  O         75.4740   41.4140   44.2890 O.2   193  LEU193     -0.2715
     88  CB        73.8450   43.8590   45.0470 C.3   193  LEU193      0.0311
     89  CG        74.5560   44.4920   46.2480 C.3   193  LEU193      0.0022
     90  CD1       75.1960   45.8060   45.8620 C.3   193  LEU193      0.0001
     91  CD2       73.5390   44.7150   47.3550 C.3   193  LEU193      0.0001
     92  N         76.9730   43.0640   44.0110 N.am  194  ILE194     -0.1977
     93  CA        78.1520   42.2320   44.2330 C.3   194  ILE194      0.1596
     94  C         79.0220   42.7680   45.4290 C.2   194  ILE194      0.2287
     95  O         79.2570   43.9800   45.5560 O.2   194  ILE194     -0.2864
     96  CB        79.0160   42.1930   42.9560 C.3   194  ILE194      0.0276
     97  CG1       78.1390   41.8530   41.7440 C.3   194  ILE194      0.0022
     98  CG2       80.1450   41.1840   43.1190 C.3   194  ILE194      0.0022
     99  CD1       77.5270   40.4660   41.7760 C.3   194  ILE194      0.0001
    100  N         81.8190   43.8150   46.4570 N.3   196  THR196     -0.1218
    101  CA        83.1120   44.4790   46.3120 C.3   196  THR196      0.1862
    102  C         83.1440   45.5060   47.4120 C.2   196  THR196      0.2287
    103  O         82.1150   45.7950   47.9870 O.2   196  THR196     -0.2866
    104  CB        83.2450   45.1700   44.9520 C.3   196  THR196      0.1770
    105  OG1       82.3100   46.2510   44.8640 O.3   196  THR196     -0.2211
    106  CG2       82.9700   44.1850   43.8440 C.3   196  THR196      0.0375
    107  N         83.7690   48.7970   47.2600 N.3   198  THR198     -0.1203
    108  CA        83.1380   50.0820   46.9770 C.3   198  THR198      0.1994
    109  C         81.6230   49.9920   46.9540 C.2   198  THR198      0.2617
    110  O         80.9510   50.9840   47.1310 O.2   198  THR198     -0.2717
    111  CB        83.6330   50.7140   45.6350 C.3   198  THR198      0.1784
    112  OG1       82.8950   50.1810   44.5320 O.3   198  THR198     -0.2211
    113  CG2       85.1140   50.4450   45.4340 C.3   198  THR198      0.0376
    114  N         81.0890   48.7900   46.7540 N.am  199  ALA199     -0.1979
    115  CA        79.6420   48.5980   46.6960 C.3   199  ALA199      0.1597
    116  C         79.0530   48.4920   48.0360 C.2   199  ALA199      0.2287
    117  O         77.9840   49.0130   48.2840 O.2   199  ALA199     -0.2864
    118  CB        79.3100   47.3590   45.8900 C.3   199  ALA199      0.0319
    119  N         79.4150   52.0440   49.7000 N.3   202  GLU202     -0.1231
    120  CA        78.4310   52.9620   49.1540 C.3   202  GLU202      0.1699
    121  C         76.9320   52.7370   49.4870 C.2   202  GLU202      0.2592
    122  O         76.1460   53.6960   49.4630 O.2   202  GLU202     -0.2718
    123  CB        78.6050   53.0170   47.6440 C.3   202  GLU202      0.0402
    124  CG        78.5640   54.4190   47.0840 C.3   202  GLU202      0.1161
    125  CD        79.5840   55.2260   47.8570 C.2   202  GLU202      0.3649
    126  OE1       80.7800   54.8620   47.8330 O.co2 202  GLU202     -0.2457
    127  OE2       79.1810   56.2240   48.4870 O.co2 202  GLU202     -0.2457
    128  N         76.5390   51.4990   49.7800 N.am  203  ILE203     -0.1980
    129  CA        75.1440   51.2160   50.1030 C.3   203  ILE203      0.1595
    130  C         74.9200   51.1950   51.5910 C.2   203  ILE203      0.2287
    131  O         73.8010   50.9950   52.0590 O.2   203  ILE203     -0.2864
    132  CB        74.6820   49.8400   49.5580 C.3   203  ILE203      0.0276
    133  CG1       75.5100   48.7250   50.1920 C.3   203  ILE203      0.0022
    134  CG2       74.7840   49.7980   48.0490 C.3   203  ILE203      0.0022
    135  CD1       74.9100   47.3530   50.0030 C.3   203  ILE203      0.0001
    136  N         70.9500   50.8000   51.7440 N.3   207  ILE207     -0.1245
    137  CA        70.3530   49.6010   51.1580 C.3   207  ILE207      0.1561
    138  C         70.6490   48.2420   51.8690 C.2   207  ILE207      0.2260
    139  O         71.7760   47.9440   52.2250 O.2   207  ILE207     -0.2867
    140  CB        70.7180   49.5140   49.6660 C.3   207  ILE207      0.0252
    141  CG1       69.9720   50.6200   48.9100 C.3   207  ILE207      0.0019
    142  CG2       70.3810   48.1380   49.1170 C.3   207  ILE207      0.0019
    143  CD1       70.3080   50.7260   47.4470 C.3   207  ILE207      0.0001
    144  N         69.7560   45.0410   50.5920 N.3   209  ALA209     -0.1245
    145  CA        70.0730   43.9700   49.6570 C.3   209  ALA209      0.1562
    146  C         71.2930   43.0760   49.9550 C.2   209  ALA209      0.2260
    147  O         72.3450   43.5550   50.3580 O.2   209  ALA209     -0.2867
    148  CB        70.2070   44.5580   48.2700 C.3   209  ALA209      0.0290
@<TRIPOS>BOND
     1    63    62    2
     2    27    26    2
     3    24    25    1
     4    41    40    2
     5    40    39    1
     6    78    77    1
     7    33    32    2
     8    62    61    1
     9    72    73    1
    10    26    25    1
    11    26    30   am
    12     1     2    1
    13     7     5    1
    14    25    28    1
    15     2     5    1
    16     2     3    1
    17    32    31    1
    18    32    38   am
    19    61    60    1
    20    61    64    1
    21    31    30    1
    22    31    34    1
    23     5     6    1
    24    39    38    1
    25    39    42    1
    26     3     4    2
    27    77    79    1
    28    77    76    1
    29    28    29    1
    30    73    76    1
    31    73    74    1
    32    37    35    1
    33    66    68   ar
    34    66    65   ar
    35    68    70   ar
    36    65    64    1
    37    65    67   ar
    38    70    71    1
    39    70    69   ar
    40    34    35    1
    41     6     8    1
    42    67    69   ar
    43    75    74    2
    44    74    80   am
    45    55    54    2
    46    35    36    1
    47    80    81    1
    48    54    53    1
    49    43    44    1
    50    14    13    1
    51    57    59    1
    52    57    56    1
    53    81    82    1
    54    53    56    1
    55    53    52    1
    56    56    58    1
    57    46    45    2
    58    44    45    1
    59    44    47    1
    60    13    15    1
    61    13    10    1
    62    83    82    2
    63    51    49   am
    64    82    84   am
    65    48    47    1
    66    48    49    1
    67    97    99    1
    68    97    96    1
    69     9    10    1
    70    10    11    1
    71    49    50    2
    72    84    85    1
    73    96    98    1
    74    96    93    1
    75    11    12    2
    76    85    86    1
    77    85    88    1
    78   106   104    1
    79    92    86   am
    80    92    93    1
    81    86    87    2
    82    93    94    1
    83   112   111    1
    84   105   104    1
    85   104   101    1
    86    88    89    1
    87    23    21    1
    88    94    95    2
    89   113   111    1
    90   111   108    1
    91    90    89    1
    92   118   115    1
    93    89    91    1
    94    16    17    1
    95    17    18    1
    96    17    20    1
    97   101   100    1
    98   101   102    1
    99    21    20    1
   100    21    22    1
   101   115   114    1
   102   115   116    1
   103   114   109   am
   104    18    19    2
   105   109   108    1
   106   109   110    2
   107   108   107    1
   108   124   123    1
   109   124   125    1
   110   102   103    2
   111   143   141    1
   112   123   120    1
   113   126   125   ar
   114   125   127   ar
   115   116   117    2
   116   134   132    1
   117   148   145    1
   118   141   140    1
   119   142   140    1
   120   120   121    1
   121   120   119    1
   122   122   121    2
   123   121   128   am
   124   132   129    1
   125   132   133    1
   126   145   146    1
   127   145   144    1
   128   140   137    1
   129   128   129    1
   130   146   147    2
   131   135   133    1
   132   129   130    1
   133   137   136    1
   134   137   138    1
   135   130   131    2
   136   138   139    2
