@<TRIPOS>MOLECULE
tmp/1y5uA01.pdb
 102 97 0 0 0
SMALL
GASTEIGER

@<TRIPOS>ATOM
      1  N         44.8330   22.0170   34.2580 N.3    19  ASN19      -0.1240
      2  CA        45.8220   22.9820   33.8210 C.3    19  ASN19       0.1653
      3  C         45.1730   24.2490   33.2830 C.2    19  ASN19       0.2266
      4  O         44.2520   24.2300   32.4690 O.2    19  ASN19      -0.2867
      5  CB        46.6850   22.3740   32.7110 C.3    19  ASN19       0.1155
      6  CG        47.8700   23.2140   32.2750 C.2    19  ASN19       0.2627
      7  OD1       47.7300   24.2180   31.5820 O.2    19  ASN19      -0.2716
      8  ND2       49.0500   22.7780   32.7170 N.am   19  ASN19      -0.0877
      9  N         47.4220   26.7970   32.2010 N.3    21  GLY21      -0.1210
     10  CA        48.7240   27.4140   32.0010 C.3    21  GLY21       0.1956
     11  C         49.8000   26.7990   32.8710 C.2    21  GLY21       0.2611
     12  O         51.0070   26.9920   32.6250 O.2    21  GLY21      -0.2717
     13  N         49.3540   26.0480   33.8700 N.am   22  TYR22      -0.1976
     14  CA        50.1050   25.4020   34.9220 C.3    22  TYR22       0.1639
     15  C         49.1580   24.3910   35.5810 C.2    22  TYR22       0.2290
     16  O         47.9400   24.6770   35.5230 O.2    22  TYR22      -0.2864
     17  CB        50.6420   26.4150   35.9520 C.3    22  TYR22       0.0560
     18  CG        49.5330   27.3900   36.3230 C.ar   22  TYR22      -0.0198
     19  CD1       48.6820   27.0820   37.3840 C.ar   22  TYR22      -0.0009
     20  CD2       49.3420   28.5690   35.6130 C.ar   22  TYR22      -0.0009
     21  CE1       47.6670   27.9270   37.7420 C.ar   22  TYR22       0.0417
     22  CE2       48.3160   29.4240   35.9700 C.ar   22  TYR22       0.0417
     23  CZ        47.5000   29.0970   37.0200 C.ar   22  TYR22       0.1957
     24  OH        46.4670   29.9250   37.4060 O.3    22  TYR22      -0.2866
     25  N         44.3010   17.3000   31.5650 N.3    49  ARG49      -0.1245
     26  CA        45.4740   16.6190   31.0080 C.3    49  ARG49       0.1563
     27  C         45.4590   15.1900   31.5440 C.2    49  ARG49       0.2260
     28  O         45.5620   15.0160   32.7620 O.2    49  ARG49      -0.2867
     29  CB        46.7490   17.3800   31.3350 C.3    49  ARG49       0.0307
     30  CG        46.7780   18.7800   30.7740 C.3    49  ARG49       0.0489
     31  CD        48.1390   19.4430   30.8560 C.3    49  ARG49       0.2205
     32  NE        48.2590   20.4410   29.8130 N.pl3  49  ARG49      -0.0865
     33  CZ        49.3760   20.9890   29.3420 C.cat  49  ARG49       0.5346
     34  NH1       50.5510   20.6600   29.8330 N.pl3  49  ARG49       0.1354
     35  NH2       49.2920   21.8820   28.3720 N.pl3  49  ARG49       0.1354
     36  N         49.1050   11.6960   32.1190 N.3    52  GLU52      -0.1245
     37  CA        50.3380   12.3140   32.5860 C.3    52  GLU52       0.1567
     38  C         51.1130   11.4890   33.6080 C.2    52  GLU52       0.2260
     39  O         50.5690   10.8340   34.4930 O.2    52  GLU52      -0.2867
     40  CB        50.0040   13.6320   33.3010 C.3    52  GLU52       0.0388
     41  CG        49.6170   14.7830   32.4060 C.3    52  GLU52       0.1160
     42  CD        50.7810   15.4020   31.6710 C.2    52  GLU52       0.3649
     43  OE1       51.8570   14.7720   31.6210 O.co2  52  GLU52      -0.2457
     44  OE2       50.5680   16.5100   31.1450 O.co2  52  GLU52      -0.2457
     45  N         55.1690   12.8280   34.2260 N.3    54  ASN54      -0.1225
     46  CA        55.8920   14.0780   34.4280 C.3    54  ASN54       0.1785
     47  C         55.0750   15.2070   33.8200 C.2    54  ASN54       0.2597
     48  O         54.8680   15.2590   32.6050 O.2    54  ASN54      -0.2718
     49  CB        57.2940   13.9910   33.7980 C.3    54  ASN54       0.1169
     50  CG        58.1070   15.2020   34.2080 C.2    54  ASN54       0.2627
     51  OD1       57.6070   16.3230   34.1870 O.2    54  ASN54      -0.2716
     52  ND2       59.3270   14.9120   34.6260 N.am   54  ASN54      -0.0877
     53  N         54.5750   16.1160   34.6690 N.am   55  ILE55      -0.1966
     54  CA        53.7180   17.1240   34.0390 C.3    55  ILE55       0.1727
     55  C         54.5070   18.2400   33.3680 C.2    55  ILE55       0.2616
     56  O         53.8860   19.1310   32.7630 O.2    55  ILE55      -0.2715
     57  CB        52.7600   17.7620   35.0670 C.3    55  ILE55       0.0290
     58  CG1       53.4800   18.2380   36.3250 C.3    55  ILE55       0.0022
     59  CG2       51.6220   16.8350   35.4160 C.3    55  ILE55       0.0023
     60  CD1       52.5840   19.1360   37.1770 C.3    55  ILE55       0.0001
     61  N         55.8380   18.1980   33.4440 N.am   56  ASN56      -0.1958
     62  CA        56.6610   19.1830   32.7690 C.3    56  ASN56       0.1819
     63  C         57.3570   18.6240   31.5260 C.2    56  ASN56       0.2621
     64  O         58.1080   19.3580   30.8600 O.2    56  ASN56      -0.2715
     65  CB        57.7420   19.7510   33.6850 C.3    56  ASN56       0.1195
     66  CG        57.2070   20.8780   34.5470 C.2    56  ASN56       0.2630
     67  OD1       56.4440   21.7380   34.0840 O.2    56  ASN56      -0.2716
     68  ND2       57.6130   20.8690   35.7990 N.am   56  ASN56      -0.0877
     69  N         57.1190   17.3680   31.2060 N.am   57  VAL57      -0.1963
     70  CA        57.7330   16.7450   30.0330 C.3    57  VAL57       0.1727
     71  C         56.6700   16.0250   29.2060 C.2    57  VAL57       0.2616
     72  O         55.8720   15.2830   29.7980 O.2    57  VAL57      -0.2715
     73  CB        58.8600   15.7730   30.4460 C.3    57  VAL57       0.0290
     74  CG1       59.5150   15.1510   29.2160 C.3    57  VAL57       0.0023
     75  CG2       59.9110   16.4630   31.3100 C.3    57  VAL57       0.0023
     76  N         56.6410   16.2220   27.8840 N.am   58  VAL58      -0.1977
     77  CA        55.7410   15.4400   27.0390 C.3    58  VAL58       0.1596
     78  C         56.3570   14.0740   26.8040 C.2    58  VAL58       0.2287
     79  O         57.3840   13.9500   26.1270 O.2    58  VAL58      -0.2864
     80  CB        55.4710   16.1850   25.7210 C.3    58  VAL58       0.0276
     81  CG1       54.7270   15.2970   24.7330 C.3    58  VAL58       0.0022
     82  CG2       54.6570   17.4440   25.9740 C.3    58  VAL58       0.0022
     83  N         50.1750   11.5140   26.6590 N.3    62  GLU62      -0.1245
     84  CA        49.2470   12.5540   27.0710 C.3    62  GLU62       0.1567
     85  C         48.0940   12.7560   26.1000 C.2    62  GLU62       0.2260
     86  O         48.1870   12.5670   24.8990 O.2    62  GLU62      -0.2867
     87  CB        49.9820   13.8950   27.1810 C.3    62  GLU62       0.0388
     88  CG        51.0660   13.9490   28.2270 C.3    62  GLU62       0.1160
     89  CD        52.4510   13.5130   27.7970 C.2    62  GLU62       0.3649
     90  OE1       52.5910   12.9680   26.7020 O.co2  62  GLU62      -0.2457
     91  OE2       53.3990   13.7250   28.6010 O.co2  62  GLU62      -0.2457
     92  N         45.5520   16.1410   25.9940 N.3    64  PHE64      -0.1241
     93  CA        45.1650   17.4620   26.4740 C.3    64  PHE64       0.1605
     94  C         43.8250   17.8240   25.8450 C.2    64  PHE64       0.2264
     95  O         43.7060   17.8720   24.6070 O.2    64  PHE64      -0.2867
     96  CB        46.2480   18.4800   26.1230 C.3    64  PHE64       0.0534
     97  CG        47.6500   18.2300   26.6510 C.ar   64  PHE64      -0.0203
     98  CD1       47.9280   17.3260   27.6600 C.ar   64  PHE64      -0.0042
     99  CD2       48.7270   18.9340   26.1200 C.ar   64  PHE64      -0.0042
    100  CE1       49.1950   17.1330   28.1450 C.ar   64  PHE64      -0.0003
    101  CE2       50.0110   18.7480   26.6050 C.ar   64  PHE64      -0.0003
    102  CZ        50.2580   17.8510   27.6120 C.ar   64  PHE64      -0.0000
@<TRIPOS>BOND
     1    95    94    2
     2    81    80    1
     3    86    85    2
     4    80    82    1
     5    80    77    1
     6    94    93    1
     7    92    93    1
     8    85    84    1
     9    99   101   ar
    10    99    97   ar
    11    96    93    1
    12    96    97    1
    13    79    78    2
    14   101   102   ar
    15    97    98   ar
    16    83    84    1
    17    90    89   ar
    18    78    77    1
    19    77    76    1
    20    84    87    1
    21    87    88    1
    22   102   100   ar
    23    98   100   ar
    24    89    88    1
    25    89    91   ar
    26    76    71   am
    27    35    33    1
    28    71    72    2
    29    71    70    1
    30    74    73    1
    31    33    32    2
    32    33    34    1
    33    32    31    1
    34    70    73    1
    35    70    69    1
    36    73    75    1
    37    30    31    1
    38    30    29    1
    39    64    63    2
    40    26    29    1
    41    26    27    1
    42    26    25    1
    43    44    42   ar
    44    69    63   am
    45    63    62    1
    46    27    28    2
    47     7     6    2
    48    43    42   ar
    49    42    41    1
    50    10     9    1
    51    10    11    1
    52    36    37    1
    53     6     5    1
    54     6     8   am
    55    41    40    1
    56     4     3    2
    57    37    40    1
    58    37    38    1
    59    48    47    2
    60    12    11    2
    61     5     2    1
    62    56    55    2
    63    62    61    1
    64    62    65    1
    65    11    13   am
    66     3     2    1
    67    55    61   am
    68    55    54    1
    69    38    39    2
    70    65    66    1
    71    49    50    1
    72    49    46    1
    73    47    46    1
    74    47    53   am
    75     2     1    1
    76    13    14    1
    77    54    53    1
    78    54    57    1
    79    67    66    2
    80    51    50    2
    81    50    52   am
    82    45    46    1
    83    66    68   am
    84    14    15    1
    85    14    17    1
    86    57    59    1
    87    57    58    1
    88    16    15    2
    89    20    22   ar
    90    20    18   ar
    91    17    18    1
    92    22    23   ar
    93    18    19   ar
    94    58    60    1
    95    23    24    1
    96    23    21   ar
    97    19    21   ar
