@<TRIPOS>MOLECULE
tmp/1y60D00.pdb
 139 136 0 0 0
SMALL
GASTEIGER

@<TRIPOS>ATOM
      1  N          5.4820   74.1100   32.3720 N.3    10  GLU10      -0.1245
      2  CA         6.9230   74.3560   32.3150 C.3    10  GLU10       0.1567
      3  C          7.3750   75.1980   33.4950 C.2    10  GLU10       0.2260
      4  O          6.5840   75.9350   34.0890 O.2    10  GLU10      -0.2867
      5  CB         7.3560   74.9440   30.9380 C.3    10  GLU10       0.0388
      6  CG         7.4430   76.4040   30.6860 C.3    10  GLU10       0.1160
      7  CD         8.5230   77.1390   31.4530 C.2    10  GLU10       0.3649
      8  OE1        8.1580   78.0210   32.2110 O.co2  10  GLU10      -0.2457
      9  OE2        9.7140   76.8690   31.2960 O.co2  10  GLU10      -0.2457
     10  N         11.2940   76.7600   35.4820 N.3    12  LEU12      -0.1245
     11  CA        12.7270   76.7660   35.7130 C.3    12  LEU12       0.1561
     12  C         12.8830   77.1450   37.1950 C.2    12  LEU12       0.2260
     13  O         12.3460   78.1460   37.6580 O.2    12  LEU12      -0.2867
     14  CB        13.4260   77.7910   34.8160 C.3    12  LEU12       0.0270
     15  CG        14.9440   77.8640   35.0270 C.3    12  LEU12       0.0019
     16  CD1       15.6180   78.4160   33.7670 C.3    12  LEU12       0.0001
     17  CD2       15.2650   78.7360   36.2550 C.3    12  LEU12       0.0001
     18  N         15.0790   72.8500   34.6930 N.3    21  HIS21      -0.1241
     19  CA        14.1140   73.4260   33.7690 C.3    21  HIS21       0.1621
     20  C         13.3490   72.2290   33.2710 C.2    21  HIS21       0.2264
     21  O         13.9190   71.3210   32.6760 O.2    21  HIS21      -0.2867
     22  CB        14.7780   74.1810   32.6190 C.3    21  HIS21       0.0745
     23  CG        13.8570   75.1320   31.9240 C.ar   21  HIS21       0.0817
     24  ND1       14.3110   76.1700   31.1300 N.ar   21  HIS21      -0.2268
     25  CD2       12.5030   75.2130   31.9100 C.ar   21  HIS21       0.1154
     26  CE1       13.2760   76.8490   30.6600 C.ar   21  HIS21       0.1986
     27  NE2       12.1670   76.2920   31.1180 N.ar   21  HIS21      -0.2212
     28  N         10.0190   70.6960   31.1110 N.3    23  ASP23      -0.1239
     29  CA         9.0610   70.8520   29.9970 C.3    23  ASP23       0.1674
     30  C          8.1790   69.6410   30.2650 C.2    23  ASP23       0.2266
     31  O          8.6640   68.5000   30.2340 O.2    23  ASP23      -0.2867
     32  CB         9.7490   70.7020   28.6420 C.3    23  ASP23       0.1410
     33  CG        10.5420   71.9340   28.2470 C.2    23  ASP23       0.3668
     34  OD1       11.2770   72.4920   29.0890 O.co2  23  ASP23      -0.2456
     35  OD2       10.4330   72.3490   27.0790 O.co2  23  ASP23      -0.2456
     36  N         20.1450   59.0980   24.7810 N.3    48  PHE48      -0.1241
     37  CA        18.7930   59.4410   25.1760 C.3    48  PHE48       0.1605
     38  C         17.9280   58.2250   25.4190 C.2    48  PHE48       0.2264
     39  O         17.3680   57.6550   24.4900 O.2    48  PHE48      -0.2867
     40  CB        18.1320   60.3060   24.0970 C.3    48  PHE48       0.0534
     41  CG        18.7620   61.6480   23.9220 C.ar   48  PHE48      -0.0203
     42  CD1       19.9080   61.7930   23.1450 C.ar   48  PHE48      -0.0042
     43  CD2       18.2460   62.7640   24.5800 C.ar   48  PHE48      -0.0042
     44  CE1       20.5360   63.0270   23.0290 C.ar   48  PHE48      -0.0003
     45  CE2       18.8650   64.0020   24.4710 C.ar   48  PHE48      -0.0003
     46  CZ        20.0160   64.1330   23.6960 C.ar   48  PHE48      -0.0000
     47  N         17.1930   66.0950   28.1400 N.3    70  LYS70      -0.1231
     48  CA        17.3910   67.0900   27.0940 C.3    70  LYS70       0.1693
     49  C         18.8680   67.1540   26.7120 C.2    70  LYS70       0.2592
     50  O         19.2160   67.3490   25.5490 O.2    70  LYS70      -0.2718
     51  CB        16.9380   68.4740   27.5800 C.3    70  LYS70       0.0285
     52  CG        15.4880   68.5620   28.0160 C.3    70  LYS70       0.0035
     53  CD        15.1910   69.9030   28.6950 C.3    70  LYS70       0.0206
     54  CE        13.7400   69.9950   29.1210 C.3    70  LYS70       0.1093
     55  NZ        13.4240   71.2990   29.8090 N.3    70  LYS70      -0.1314
     56  N         19.7350   66.9930   27.7000 N.am   71  VAL71      -0.1966
     57  CA        21.1740   67.0390   27.4630 C.3    71  VAL71       0.1727
     58  C         21.6980   65.6380   27.2050 C.2    71  VAL71       0.2616
     59  O         21.3790   64.7020   27.9350 O.2    71  VAL71      -0.2715
     60  CB        21.9110   67.6560   28.6780 C.3    71  VAL71       0.0290
     61  CG1       23.4100   67.6810   28.4260 C.3    71  VAL71       0.0023
     62  CG2       21.3900   69.0740   28.9340 C.3    71  VAL71       0.0023
     63  N         22.5020   65.4920   26.1570 N.am   72  THR72      -0.1951
     64  CA        23.0570   64.1930   25.7900 C.3    72  THR72       0.1897
     65  C         23.7760   63.5630   26.9790 C.2    72  THR72       0.2313
     66  O         24.5880   64.2050   27.6450 O.2    72  THR72      -0.2863
     67  CB        24.0600   64.3020   24.6060 C.3    72  THR72       0.1794
     68  OG1       23.3870   64.7970   23.4460 O.3    72  THR72      -0.2208
     69  CG2       24.6290   62.9300   24.2540 C.3    72  THR72       0.0378
     70  N         26.4580   61.1670   28.0940 N.3    74  ASN74      -0.1240
     71  CA        27.6590   60.5280   27.5690 C.3    74  ASN74       0.1653
     72  C         28.3600   59.5630   28.4960 C.2    74  ASN74       0.2266
     73  O         29.1640   58.7550   28.0500 O.2    74  ASN74      -0.2867
     74  CB        28.6620   61.5970   27.1270 C.3    74  ASN74       0.1155
     75  CG        28.2630   62.2570   25.8310 C.2    74  ASN74       0.2627
     76  OD1       27.9970   61.5770   24.8340 O.2    74  ASN74      -0.2716
     77  ND2       28.2250   63.5860   25.8260 N.am   74  ASN74      -0.0877
     78  N         26.5030   61.2850   34.3610 N.3    78  GLN78      -0.1245
     79  CA        25.3070   61.9650   33.8780 C.3    78  GLN78       0.1566
     80  C         24.0770   61.0840   33.9990 C.2    78  GLN78       0.2260
     81  O         23.0140   61.5550   34.3960 O.2    78  GLN78      -0.2867
     82  CB        25.4770   62.3780   32.4180 C.3    78  GLN78       0.0367
     83  CG        26.3080   63.6210   32.1990 C.3    78  GLN78       0.0905
     84  CD        26.4460   63.9480   30.7240 C.2    78  GLN78       0.2608
     85  OE1       27.1190   63.2360   29.9810 O.2    78  GLN78      -0.2717
     86  NE2       25.7910   65.0210   30.2880 N.am   78  GLN78      -0.0878
     87  N         16.2450   68.8340   32.4140 N.3   118  PHE118     -0.1241
     88  CA        17.4990   69.4850   32.0500 C.3   118  PHE118      0.1605
     89  C         18.5430   69.3690   33.1810 C.2   118  PHE118      0.2264
     90  O         18.2640   69.6910   34.3350 O.2   118  PHE118     -0.2867
     91  CB        17.2600   70.9670   31.7680 C.3   118  PHE118      0.0534
     92  CG        18.5300   71.7460   31.5610 C.ar  118  PHE118     -0.0203
     93  CD1       19.1890   71.7180   30.3630 C.ar  118  PHE118     -0.0042
     94  CD2       19.0890   72.4760   32.5860 C.ar  118  PHE118     -0.0042
     95  CE1       20.4020   72.4110   30.1790 C.ar  118  PHE118     -0.0003
     96  CE2       20.2900   73.1600   32.4080 C.ar  118  PHE118     -0.0003
     97  CZ        20.9450   73.1270   31.2050 C.ar  118  PHE118     -0.0000
     98  N         25.7430   69.7490   31.8840 N.3   121  TRP121     -0.1241
     99  CA        26.8430   68.7980   32.0170 C.3   121  TRP121      0.1605
    100  C         27.8200   69.1350   33.1460 C.2   121  TRP121      0.2264
    101  O         28.6800   68.3200   33.4860 O.2   121  TRP121     -0.2867
    102  CB        27.6040   68.6450   30.6940 C.3   121  TRP121      0.0550
    103  CG        28.4390   69.8130   30.3260 C.ar  121  TRP121      0.0003
    104  CD1       28.0210   70.9750   29.7340 C.ar  121  TRP121      0.0946
    105  CD2       29.8540   69.9510   30.5370 C.ar  121  TRP121      0.0152
    106  NE1       29.0930   71.8290   29.5640 N.ar  121  TRP121     -0.2442
    107  CE2       30.2280   71.2260   30.0480 C.ar  121  TRP121      0.0810
    108  CE3       30.8410   69.1200   31.0920 C.ar  121  TRP121      0.0012
    109  CZ2       31.5570   71.6930   30.0990 C.ar  121  TRP121      0.0191
    110  CZ3       32.1570   69.5830   31.1430 C.ar  121  TRP121      0.0001
    111  CH2       32.5010   70.8600   30.6480 C.ar  121  TRP121      0.0015
    112  N         14.2630   87.0210   28.6360 N.3   163  HIS163     -0.1227
    113  CA        14.8820   85.7340   28.3240 C.3   163  HIS163      0.1737
    114  C         16.3790   85.8730   28.5180 C.2   163  HIS163      0.2438
    115  O         17.0000   86.7640   27.9630 O.2   163  HIS163     -0.2733
    116  CB        14.5840   85.3220   26.8800 C.3   163  HIS163      0.0758
    117  CG        14.9660   83.9080   26.5610 C.ar  163  HIS163      0.0818
    118  ND1       16.2520   83.4350   26.6770 N.ar  163  HIS163     -0.2268
    119  CD2       14.2360   82.8730   26.0860 C.ar  163  HIS163      0.1154
    120  CE1       16.3010   82.1750   26.2840 C.ar  163  HIS163      0.1986
    121  NE2       15.0900   81.8100   25.9180 N.ar  163  HIS163     -0.2212
    122  N         16.9690   84.9700   29.3070 N.am  164  PRO164     -0.2718
    123  CA        18.3850   84.8680   29.6720 C.3   164  PRO164      0.1535
    124  C         19.3420   84.8190   28.4920 C.2   164  PRO164      0.2598
    125  O         20.5070   85.1650   28.6380 O.2   164  PRO164     -0.2715
    126  CB        18.4520   83.5630   30.4650 C.3   164  PRO164      0.0310
    127  CG        17.0690   83.3810   30.9760 C.3   164  PRO164      0.0237
    128  CD        16.2270   83.8050   29.8120 C.3   164  PRO164      0.0939
    129  N         18.8680   84.3640   27.3330 N.am  165  PHE165     -0.1974
    130  CA        19.7390   84.2650   26.1560 C.3   165  PHE165      0.1639
    131  C         19.2390   85.0290   24.9250 C.2   165  PHE165      0.2290
    132  O         19.7470   84.8150   23.8230 O.2   165  PHE165     -0.2864
    133  CB        19.9350   82.7990   25.7600 C.3   165  PHE165      0.0560
    134  CG        20.4020   81.9290   26.8740 C.ar  165  PHE165     -0.0200
    135  CD1       19.8540   80.6590   27.0500 C.ar  165  PHE165     -0.0042
    136  CD2       21.3910   82.3670   27.7530 C.ar  165  PHE165     -0.0042
    137  CE1       20.2840   79.8300   28.0920 C.ar  165  PHE165     -0.0003
    138  CE2       21.8290   81.5510   28.7980 C.ar  165  PHE165     -0.0003
    139  CZ        21.2750   80.2780   28.9680 C.ar  165  PHE165     -0.0000
@<TRIPOS>BOND
     1    44    42   ar
     2    44    46   ar
     3    42    41   ar
     4    68    67    1
     5    46    45   ar
     6   132   131    2
     7    41    40    1
     8    41    43   ar
     9    40    37    1
    10    69    67    1
    11    45    43   ar
    12    39    38    2
    13    67    64    1
    14    36    37    1
    15    76    75    2
    16   131   130    1
    17    37    38    1
    18    50    49    2
    19   133   130    1
    20   133   134    1
    21    64    63    1
    22    64    65    1
    23    77    75   am
    24    75    74    1
    25   121   119   ar
    26   121   120   ar
    27   119   117   ar
    28   130   129    1
    29    63    58   am
    30   120   118   ar
    31   117   118   ar
    32   117   116    1
    33    49    48    1
    34    49    56   am
    35   134   135   ar
    36   134   136   ar
    37   116   113    1
    38    65    66    2
    39   135   137   ar
    40    35    33   ar
    41    48    51    1
    42    48    47    1
    43    74    71    1
    44    58    57    1
    45    58    59    2
    46   129   124   am
    47    57    56    1
    48    57    60    1
    49    71    70    1
    50    71    72    1
    51    51    52    1
    52   136   138   ar
    53   115   114    2
    54    52    53    1
    55    73    72    2
    56   137   139   ar
    57    33    32    1
    58    33    34   ar
    59   113   114    1
    60   113   112    1
    61    61    60    1
    62   124   125    2
    63   124   123    1
    64   114   122   am
    65    32    29    1
    66    60    62    1
    67    53    54    1
    68   138   139   ar
    69    54    55    1
    70   122   123    1
    71   122   128    1
    72   106   104   ar
    73   106   107   ar
    74   123   126    1
    75   104   103   ar
    76   128   127    1
    77    85    84    2
    78    29    30    1
    79    29    28    1
    80   107   109   ar
    81   107   105   ar
    82   109   111   ar
    83    95    93   ar
    84    95    97   ar
    85    31    30    2
    86    86    84   am
    87   103   105   ar
    88   103   102    1
    89    93    92   ar
    90   126   127    1
    91   105   108   ar
    92   111   110   ar
    93    26    27   ar
    94    26    24   ar
    95     6     5    1
    96     6     7    1
    97   102    99    1
    98    84    83    1
    99     5     2    1
   100   108   110   ar
   101    27    25   ar
   102    24    23   ar
   103    97    96   ar
   104     9     7   ar
   105     7     8   ar
   106    92    91    1
   107    92    94   ar
   108    91    88    1
   109    98    99    1
   110    25    23   ar
   111    23    22    1
   112    99   100    1
   113    88    87    1
   114    88    89    1
   115    83    82    1
   116     2     1    1
   117     2     3    1
   118    96    94   ar
   119    82    79    1
   120    22    19    1
   121    21    20    2
   122   100   101    2
   123    89    90    2
   124    20    19    1
   125     3     4    2
   126    16    15    1
   127    19    18    1
   128    79    80    1
   129    79    78    1
   130    80    81    2
   131    14    15    1
   132    14    11    1
   133    15    17    1
   134    10    11    1
   135    11    12    1
   136    12    13    2
