@<TRIPOS>MOLECULE
tmp/1y60D01.pdb
 132 128 0 0 0
SMALL
GASTEIGER

@<TRIPOS>ATOM
      1  N         17.6310   55.8840   22.1830 N.3    45  LYS45      -0.1231
      2  CA        18.6920   56.1720   21.2430 C.3    45  LYS45       0.1693
      3  C         19.9730   56.4420   22.0340 C.2    45  LYS45       0.2592
      4  O         19.9350   56.6500   23.2450 O.2    45  LYS45      -0.2718
      5  CB        18.3360   57.4100   20.4090 C.3    45  LYS45       0.0285
      6  CG        16.9470   57.3880   19.7730 C.3    45  LYS45       0.0035
      7  CD        16.0580   58.5690   20.1450 C.3    45  LYS45       0.0206
      8  CE        15.2370   58.3020   21.3980 C.3    45  LYS45       0.1093
      9  NZ        14.5210   59.5230   21.8670 N.3    45  LYS45      -0.1314
     10  N         21.1080   56.4370   21.3510 N.am   46  HIS46      -0.1962
     11  CA        22.3550   56.7060   22.0370 C.3    46  HIS46       0.1787
     12  C         22.2920   58.0870   22.6870 C.2    46  HIS46       0.2621
     13  O         21.9670   59.0690   22.0290 O.2    46  HIS46      -0.2715
     14  CB        23.5350   56.6570   21.0730 C.3    46  HIS46       0.0785
     15  CG        24.8520   56.8210   21.7600 C.ar   46  HIS46       0.0821
     16  ND1       25.2000   56.0870   22.8770 N.ar   46  HIS46      -0.2267
     17  CD2       25.9000   57.6420   21.5080 C.ar   46  HIS46       0.1154
     18  CE1       26.4050   56.4470   23.2810 C.ar   46  HIS46       0.1986
     19  NE2       26.8520   57.3890   22.4670 N.ar   46  HIS46      -0.2212
     20  N         22.5990   58.1480   23.9780 N.am   47  GLY47      -0.1940
     21  CA        22.5630   59.4080   24.7030 C.3    47  GLY47       0.2014
     22  C         21.1840   59.8100   25.2110 C.2    47  GLY47       0.2639
     23  O         21.0600   60.7450   25.9990 O.2    47  GLY47      -0.2714
     24  N         20.1450   59.0980   24.7810 N.am   48  PHE48      -0.1959
     25  CA        18.7930   59.4410   25.1760 C.3    48  PHE48       0.1771
     26  C         17.9280   58.2250   25.4190 C.2    48  PHE48       0.2620
     27  O         17.3680   57.6550   24.4900 O.2    48  PHE48      -0.2715
     28  CB        18.1320   60.3060   24.0970 C.3    48  PHE48       0.0574
     29  CG        18.7620   61.6480   23.9220 C.ar   48  PHE48      -0.0200
     30  CD1       19.9080   61.7930   23.1450 C.ar   48  PHE48      -0.0042
     31  CD2       18.2460   62.7640   24.5800 C.ar   48  PHE48      -0.0042
     32  CE1       20.5360   63.0270   23.0290 C.ar   48  PHE48      -0.0003
     33  CE2       18.8650   64.0020   24.4710 C.ar   48  PHE48      -0.0003
     34  CZ        20.0160   64.1330   23.6960 C.ar   48  PHE48      -0.0000
     35  N         17.8230   57.8220   26.6740 N.am   49  THR49      -0.1951
     36  CA        17.0110   56.6660   27.0340 C.3    49  THR49       0.1897
     37  C         15.9300   57.2130   27.9380 C.2    49  THR49       0.2313
     38  O         16.2020   58.0100   28.8180 O.2    49  THR49      -0.2863
     39  CB        17.8600   55.5710   27.7560 C.3    49  THR49       0.1794
     40  OG1       18.6150   54.8300   26.7740 O.3    49  THR49      -0.2208
     41  CG2       16.9650   54.6140   28.5400 C.3    49  THR49       0.0378
     42  N         12.8280   56.5650   30.6610 N.3    51  LEU51      -0.1231
     43  CA        12.4400   55.5610   31.6420 C.3    51  LEU51       0.1693
     44  C         11.2640   56.0200   32.4600 C.2    51  LEU51       0.2591
     45  O         10.9420   57.2170   32.4900 O.2    51  LEU51      -0.2718
     46  CB        13.6070   55.2800   32.5810 C.3    51  LEU51       0.0284
     47  CG        14.8560   54.7420   31.8720 C.3    51  LEU51       0.0019
     48  CD1       16.0440   54.7670   32.8470 C.3    51  LEU51       0.0001
     49  CD2       14.5770   53.3280   31.3800 C.3    51  LEU51       0.0001
     50  N         10.6180   55.0720   33.1260 N.am   52  LEU52      -0.1980
     51  CA         9.4940   55.4300   33.9990 C.3    52  LEU52       0.1596
     52  C         10.0780   56.1380   35.2140 C.2    52  LEU52       0.2287
     53  O         11.1330   55.7470   35.7150 O.2    52  LEU52      -0.2864
     54  CB         8.7600   54.1920   34.5080 C.3    52  LEU52       0.0297
     55  CG         8.0380   53.3260   33.4890 C.3    52  LEU52       0.0022
     56  CD1        7.6420   52.0160   34.1550 C.3    52  LEU52       0.0001
     57  CD2        6.8170   54.0800   32.9360 C.3    52  LEU52       0.0001
     58  N         10.4460   56.6580   38.9650 N.3    54  VAL54      -0.1245
     59  CA        10.1290   55.8680   40.1520 C.3    54  VAL54       0.1561
     60  C         10.6560   56.5940   41.3800 C.2    54  VAL54       0.2260
     61  O         11.7150   57.2350   41.3270 O.2    54  VAL54      -0.2867
     62  CB        10.7840   54.4540   40.1390 C.3    54  VAL54       0.0252
     63  CG1       10.3610   53.6740   38.8900 C.3    54  VAL54       0.0019
     64  CG2       12.2890   54.5750   40.2490 C.3    54  VAL54       0.0019
     65  N         13.2570   51.9560   42.9570 N.3    57  PRO57      -0.2116
     66  CA        12.9730   50.7370   42.1940 C.3    57  PRO57       0.1372
     67  C         11.8680   49.9940   42.9460 C.2    57  PRO57       0.2244
     68  O         11.8880   49.9350   44.1730 O.2    57  PRO57      -0.2868
     69  CB        14.3020   49.9980   42.2330 C.3    57  PRO57       0.0268
     70  CG        15.2950   51.1300   42.1800 C.3    57  PRO57       0.0207
     71  CD        14.7050   52.1270   43.1680 C.3    57  PRO57       0.0892
     72  N         23.4630   62.3010   27.2450 N.3    73  ILE73      -0.1231
     73  CA        24.0880   61.5780   28.3380 C.3    73  ILE73       0.1692
     74  C         25.2390   60.7710   27.7450 C.2    73  ILE73       0.2592
     75  O         25.0280   59.8250   26.9860 O.2    73  ILE73      -0.2718
     76  CB        23.0530   60.6780   29.0340 C.3    73  ILE73       0.0266
     77  CG1       22.0900   61.5700   29.8040 C.3    73  ILE73       0.0019
     78  CG2       23.7450   59.6650   29.9530 C.3    73  ILE73       0.0020
     79  CD1       20.8890   60.8460   30.3870 C.3    73  ILE73       0.0001
     80  N         26.4580   61.1670   28.0940 N.am   74  ASN74      -0.1960
     81  CA        27.6590   60.5280   27.5690 C.3    74  ASN74       0.1819
     82  C         28.3600   59.5630   28.4960 C.2    74  ASN74       0.2621
     83  O         29.1640   58.7550   28.0500 O.2    74  ASN74      -0.2715
     84  CB        28.6620   61.5970   27.1270 C.3    74  ASN74       0.1195
     85  CG        28.2630   62.2570   25.8310 C.2    74  ASN74       0.2630
     86  OD1       27.9970   61.5770   24.8340 O.2    74  ASN74      -0.2716
     87  ND2       28.2250   63.5860   25.8260 N.am   74  ASN74      -0.0877
     88  N         28.0720   59.6410   29.7870 N.am   75  ASP75      -0.1957
     89  CA        28.7220   58.7450   30.7290 C.3    75  ASP75       0.1840
     90  C         27.8240   58.3730   31.8980 C.2    75  ASP75       0.2621
     91  O         26.6970   58.8680   32.0280 O.2    75  ASP75      -0.2715
     92  CB        30.0090   59.3830   31.2590 C.3    75  ASP75       0.1450
     93  CG        29.7680   60.7240   31.8990 C.2    75  ASP75       0.3671
     94  OD1       28.7040   60.9560   32.4790 O.co2  75  ASP75      -0.2456
     95  OD2       30.6440   61.5740   31.8510 O.co2  75  ASP75      -0.2456
     96  N         28.3390   57.4960   32.7530 N.am   76  ALA76      -0.1977
     97  CA        27.5980   57.0350   33.9120 C.3    76  ALA76       0.1597
     98  C         27.2660   58.1590   34.8960 C.2    76  ALA76       0.2287
     99  O         26.1750   58.1780   35.4760 O.2    76  ALA76      -0.2864
    100  CB        28.3760   55.9310   34.6080 C.3    76  ALA76       0.0319
    101  N         24.2270   59.8110   33.6530 N.3    79  ALA79      -0.1231
    102  CA        23.1220   58.8670   33.7200 C.3    79  ALA79       0.1694
    103  C         22.5660   58.7180   35.1460 C.2    79  ALA79       0.2591
    104  O         21.3450   58.6690   35.3550 O.2    79  ALA79      -0.2718
    105  CB        23.5720   57.5080   33.1860 C.3    79  ALA79       0.0304
    106  N         23.4590   58.6520   36.1300 N.am   80  VAL80      -0.1980
    107  CA        23.0130   58.4970   37.5050 C.3    80  VAL80       0.1595
    108  C         22.3580   59.7470   38.0440 C.2    80  VAL80       0.2287
    109  O         21.4260   59.6510   38.8390 O.2    80  VAL80      -0.2864
    110  CB        24.1600   58.0730   38.4160 C.3    80  VAL80       0.0276
    111  CG1       23.6670   57.9660   39.8490 C.3    80  VAL80       0.0022
    112  CG2       24.6970   56.7110   37.9500 C.3    80  VAL80       0.0022
    113  N         18.8900   59.6980   36.4540 N.3    83  PHE83      -0.1241
    114  CA        18.0630   58.6670   37.0630 C.3    83  PHE83       0.1605
    115  C         18.3790   58.3160   38.5130 C.2    83  PHE83       0.2264
    116  O         18.2840   57.1540   38.9410 O.2    83  PHE83      -0.2867
    117  CB        18.0620   57.4320   36.1680 C.3    83  PHE83       0.0534
    118  CG        17.5230   57.7110   34.7830 C.ar   83  PHE83      -0.0203
    119  CD1       18.3950   57.9430   33.7090 C.ar   83  PHE83      -0.0042
    120  CD2       16.1340   57.8050   34.5660 C.ar   83  PHE83      -0.0042
    121  CE1       17.9040   58.2630   32.4370 C.ar   83  PHE83      -0.0003
    122  CE2       15.6230   58.1250   33.3020 C.ar   83  PHE83      -0.0003
    123  CZ        16.5160   58.3560   32.2280 C.ar   83  PHE83      -0.0000
    124  N         15.4830   61.8320   39.0400 N.3    87  GLN87      -0.1245
    125  CA        14.3570   60.9030   38.9870 C.3    87  GLN87       0.1566
    126  C         13.5900   60.8910   40.3030 C.2    87  GLN87       0.2260
    127  O         12.3520   61.0050   40.3260 O.2    87  GLN87      -0.2867
    128  CB        14.8290   59.4850   38.6490 C.3    87  GLN87       0.0367
    129  CG        13.7230   58.4370   38.7080 C.3    87  GLN87       0.0905
    130  CD        14.2030   57.0680   38.2790 C.2    87  GLN87       0.2608
    131  OE1       13.5350   56.3720   37.5150 O.2    87  GLN87      -0.2717
    132  NE2       15.3610   56.6710   38.7630 N.am   87  GLN87      -0.0878
@<TRIPOS>BOND
     1     6     7    1
     2     6     5    1
     3     7     8    1
     4     5     2    1
     5    14    15    1
     6    14    11    1
     7     2     3    1
     8     2     1    1
     9    10     3   am
    10    10    11    1
    11     8     9    1
    12    17    15   ar
    13    17    19   ar
    14    15    16   ar
    15    13    12    2
    16     3     4    2
    17    11    12    1
    18    19    18   ar
    19    12    20   am
    20    16    18   ar
    21    32    30   ar
    22    32    34   ar
    23    30    29   ar
    24    34    33   ar
    25    29    28    1
    26    29    31   ar
    27    20    21    1
    28    28    25    1
    29    33    31   ar
    30    27    26    2
    31    21    22    1
    32    24    25    1
    33    24    22   am
    34    86    85    2
    35    25    26    1
    36    22    23    2
    37    26    35   am
    38    87    85   am
    39    85    84    1
    40    35    36    1
    41    40    39    1
    42    75    74    2
    43    36    39    1
    44    36    37    1
    45    84    81    1
    46    72    73    1
    47    81    80    1
    48    81    82    1
    49    74    80   am
    50    74    73    1
    51    39    41    1
    52    37    38    2
    53    83    82    2
    54    73    76    1
    55    82    88   am
    56    76    77    1
    57    76    78    1
    58    88    89    1
    59    77    79    1
    60    42    43    1
    61    89    92    1
    62    89    90    1
    63    92    93    1
    64    49    47    1
    65    43    44    1
    66    43    46    1
    67    95    93   ar
    68    47    46    1
    69    47    48    1
    70    90    91    2
    71    90    96   am
    72    93    94   ar
    73   123   121   ar
    74   123   122   ar
    75   121   119   ar
    76    44    45    2
    77    44    50   am
    78    96    97    1
    79    57    55    1
    80    50    51    1
    81   105   102    1
    82   122   120   ar
    83    55    56    1
    84    55    54    1
    85   101   102    1
    86   119   118   ar
    87   102   103    1
    88    97   100    1
    89    97    98    1
    90    51    54    1
    91    51    52    1
    92   120   118   ar
    93   118   117    1
    94    98    99    2
    95   103   104    2
    96   103   106   am
    97    52    53    2
    98   106   107    1
    99   117   114    1
   100   113   114    1
   101   114   115    1
   102   107   108    1
   103   107   110    1
   104   131   130    2
   105   112   110    1
   106   108   109    2
   107   130   129    1
   108   130   132   am
   109   110   111    1
   110   115   116    2
   111   128   129    1
   112   128   125    1
   113    63    62    1
   114    58    59    1
   115   125   124    1
   116   125   126    1
   117    62    59    1
   118    62    64    1
   119    59    60    1
   120   126   127    2
   121    61    60    2
   122    70    69    1
   123    70    71    1
   124    66    69    1
   125    66    67    1
   126    66    65    1
   127    67    68    2
   128    65    71    1
