@<TRIPOS>MOLECULE
tmp/1y65A00.pdb
 166 157 0 0 0
SMALL
GASTEIGER

@<TRIPOS>ATOM
      1  N         18.8920   17.9990   34.0320 N.3    31  ILE31      -0.1245
      2  CA        17.5590   17.5980   33.5820 C.3    31  ILE31       0.1561
      3  C         16.7380   18.8780   33.3980 C.2    31  ILE31       0.2260
      4  O         16.6430   19.7090   34.3120 O.2    31  ILE31      -0.2867
      5  CB        16.9010   16.5490   34.5300 C.3    31  ILE31       0.0252
      6  CG1       15.4940   16.1940   34.0340 C.3    31  ILE31       0.0019
      7  CG2       16.8760   17.0180   36.0020 C.3    31  ILE31       0.0019
      8  CD1       14.9540   14.8900   34.6620 C.3    31  ILE31       0.0001
      9  N         13.0800   20.8880   32.3740 N.3    33  PHE33      -0.1241
     10  CA        11.6410   20.7730   32.5790 C.3    33  PHE33       0.1605
     11  C         10.9090   21.8350   31.7630 C.2    33  PHE33       0.2264
     12  O         11.5380   22.6690   31.1160 O.2    33  PHE33      -0.2867
     13  CB        11.3020   20.8440   34.0860 C.3    33  PHE33       0.0534
     14  CG        11.7980   19.6460   34.8650 C.ar   33  PHE33      -0.0203
     15  CD1       12.9380   19.7330   35.6520 C.ar   33  PHE33      -0.0042
     16  CD2       11.1590   18.4250   34.7610 C.ar   33  PHE33      -0.0042
     17  CE1       13.4010   18.6140   36.3670 C.ar   33  PHE33      -0.0003
     18  CE2       11.6240   17.3100   35.4680 C.ar   33  PHE33      -0.0003
     19  CZ        12.7390   17.4130   36.2570 C.ar   33  PHE33      -0.0000
     20  N         12.4700   14.6910   29.9640 N.3    63  ASP63      -0.1239
     21  CA        11.3650   13.7810   29.8000 C.3    63  ASP63       0.1674
     22  C         10.5550   14.1390   28.5530 C.2    63  ASP63       0.2266
     23  O          9.6260   14.9650   28.6090 O.2    63  ASP63      -0.2867
     24  CB        10.4810   13.7860   31.0480 C.3    63  ASP63       0.1410
     25  CG        11.2050   13.2550   32.2850 C.2    63  ASP63       0.3668
     26  OD1       11.8030   12.1490   32.2220 O.co2  63  ASP63      -0.2456
     27  OD2       11.1920   13.9540   33.3220 O.co2  63  ASP63      -0.2456
     28  N          8.0220   17.8910   27.3570 N.3    71  ARG71      -0.1245
     29  CA         8.3440   19.1710   27.9780 C.3    71  ARG71       0.1563
     30  C          8.4520   20.2780   26.9590 C.2    71  ARG71       0.2260
     31  O          8.1770   21.4500   27.2760 O.2    71  ARG71      -0.2867
     32  CB         9.6800   19.1330   28.7180 C.3    71  ARG71       0.0307
     33  CG         9.8460   18.0690   29.7520 C.3    71  ARG71       0.0489
     34  CD         8.6910   17.9910   30.7200 C.3    71  ARG71       0.2205
     35  NE         9.0290   17.0800   31.8050 N.pl3  71  ARG71      -0.0865
     36  CZ         8.1540   16.5110   32.6300 C.cat  71  ARG71       0.5346
     37  NH1        6.8490   16.7490   32.5070 N.pl3  71  ARG71       0.1354
     38  NH2        8.5930   15.6590   33.5510 N.pl3  71  ARG71       0.1354
     39  N         14.5980   10.7250   28.5630 N.3   115  PHE115     -0.1241
     40  CA        14.4030    9.6240   29.4840 C.3   115  PHE115      0.1605
     41  C         13.2270    8.8000   28.9480 C.2   115  PHE115      0.2264
     42  O         12.0890    8.9330   29.3790 O.2   115  PHE115     -0.2867
     43  CB        14.1600   10.1180   30.9140 C.3   115  PHE115      0.0534
     44  CG        15.3360   10.8640   31.4930 C.ar  115  PHE115     -0.0203
     45  CD1       15.3430   12.2460   31.5380 C.ar  115  PHE115     -0.0042
     46  CD2       16.4620   10.1780   31.9350 C.ar  115  PHE115     -0.0042
     47  CE1       16.4470   12.9400   32.0560 C.ar  115  PHE115     -0.0003
     48  CE2       17.5680   10.8670   32.4590 C.ar  115  PHE115     -0.0003
     49  CZ        17.5540   12.2550   32.5130 C.ar  115  PHE115     -0.0000
     50  N         -0.7660    7.0790   36.7520 N.3   127  ALA127     -0.1231
     51  CA         0.5020    7.7760   36.4890 C.3   127  ALA127      0.1694
     52  C          1.0830    7.3930   35.1190 C.2   127  ALA127      0.2591
     53  O          1.8420    8.1720   34.5300 O.2   127  ALA127     -0.2718
     54  CB         1.5310    7.4600   37.5760 C.3   127  ALA127      0.0304
     55  N          0.7440    6.1920   34.6470 N.am  128  ILE128     -0.1980
     56  CA         1.2820    5.6800   33.4060 C.3   128  ILE128      0.1595
     57  C          0.2460    5.9080   32.3270 C.2   128  ILE128      0.2287
     58  O          0.4380    6.7700   31.4810 O.2   128  ILE128     -0.2864
     59  CB         1.6860    4.2000   33.5160 C.3   128  ILE128      0.0276
     60  CG1        2.6720    3.9870   34.6890 C.3   128  ILE128      0.0022
     61  CG2        2.2810    3.6920   32.1930 C.3   128  ILE128      0.0022
     62  CD1        3.9460    4.8450   34.6160 C.3   128  ILE128      0.0001
     63  N          0.9150    6.5350   28.4680 N.3   131  ARG131     -0.1245
     64  CA         2.3840    6.5230   28.3290 C.3   131  ARG131      0.1563
     65  C          2.9070    5.1320   27.9870 C.2   131  ARG131      0.2260
     66  O          4.0410    4.9900   27.5350 O.2   131  ARG131     -0.2867
     67  CB         3.0640    7.0240   29.6200 C.3   131  ARG131      0.0307
     68  CG         2.6970    8.4680   29.9600 C.3   131  ARG131      0.0489
     69  CD         3.1220    8.8190   31.3690 C.3   131  ARG131      0.2205
     70  NE         4.5800    8.7580   31.5160 N.pl3 131  ARG131     -0.0865
     71  CZ         5.2320    8.7240   32.6710 C.cat 131  ARG131      0.5346
     72  NH1        4.5780    8.7230   33.8170 N.pl3 131  ARG131      0.1354
     73  NH2        6.5550    8.7090   32.6700 N.pl3 131  ARG131      0.1354
     74  N         12.3070    2.4700   31.2430 N.3   161  LYS161     -0.1231
     75  CA        11.6930    2.7910   32.5430 C.3   161  LYS161      0.1693
     76  C         10.2620    2.2380   32.6040 C.2   161  LYS161      0.2592
     77  O          9.6610    1.9900   31.5650 O.2   161  LYS161     -0.2718
     78  CB        11.7490    4.3120   32.8450 C.3   161  LYS161      0.0285
     79  CG        10.9820    5.1910   31.9000 C.3   161  LYS161      0.0035
     80  CD        11.2910    6.6790   32.0800 C.3   161  LYS161      0.0206
     81  CE        10.1860    7.5300   31.4420 C.3   161  LYS161      0.1093
     82  NZ        10.3180    9.0250   31.6250 N.3   161  LYS161     -0.1314
     83  N          9.7010    2.0070   33.7900 N.am  162  HIS162     -0.1976
     84  CA        10.3130    2.2410   35.1030 C.3   162  HIS162      0.1656
     85  C         10.5010    0.8630   35.6930 C.2   162  HIS162      0.2291
     86  O          9.5290    0.1770   36.0870 O.2   162  HIS162     -0.2864
     87  CB         9.4130    3.1040   35.9920 C.3   162  HIS162      0.0771
     88  CG         8.9280    4.3420   35.3180 C.ar  162  HIS162      0.0820
     89  ND1        7.8660    4.3320   34.4440 N.ar  162  HIS162     -0.2267
     90  CD2        9.3730    5.6210   35.3540 C.ar  162  HIS162      0.1154
     91  CE1        7.6670    5.5570   33.9830 C.ar  162  HIS162      0.1986
     92  NE2        8.5610    6.3610   34.5260 N.ar  162  HIS162     -0.2212
     93  N          6.0280   -0.4880   36.1260 N.3   166  HIS166     -0.1241
     94  CA         5.0920    0.4130   36.8030 C.3   166  HIS166      0.1621
     95  C          3.6330    0.2730   36.3230 C.2   166  HIS166      0.2264
     96  O          2.7460    1.0000   36.7950 O.2   166  HIS166     -0.2867
     97  CB         5.5490    1.8530   36.5730 C.3   166  HIS166      0.0745
     98  CG         5.1340    2.8070   37.6570 C.ar  166  HIS166      0.0817
     99  ND1        3.8150    3.0790   37.9420 N.ar  166  HIS166     -0.2268
    100  CD2        5.8690    3.5720   38.5000 C.ar  166  HIS166      0.1154
    101  CE1        3.7550    3.9660   38.9260 C.ar  166  HIS166      0.1986
    102  NE2        4.9920    4.2830   39.2750 N.ar  166  HIS166     -0.2212
    103  N         15.9580    3.5130   34.2030 N.3   205  MET205     -0.1231
    104  CA        15.4260    4.1750   35.3910 C.3   205  MET205      0.1687
    105  C         14.4490    3.2510   36.1280 C.2   205  MET205      0.2434
    106  O         13.4890    2.7650   35.5310 O.2   205  MET205     -0.2733
    107  CB        14.7300    5.4710   35.0450 C.3   205  MET205      0.0400
    108  CG        14.4780    6.3740   36.2650 C.3   205  MET205      0.0596
    109  SD        13.4360    7.6800   35.7050 S.3   205  MET205     -0.1393
    110  CE        14.7120    8.8080   35.1370 C.3   205  MET205      0.0692
    111  N         14.6860    3.0300   37.4270 N.am  206  PRO206     -0.2729
    112  CA        13.8020    2.2350   38.2400 C.3   206  PRO206      0.1401
    113  C         12.5560    2.9820   38.7280 C.2   206  PRO206      0.2269
    114  O         12.5170    4.2210   38.7980 O.2   206  PRO206     -0.2865
    115  CB        14.6810    1.8630   39.4330 C.3   206  PRO206      0.0296
    116  CG        15.5400    3.0940   39.6240 C.3   206  PRO206      0.0237
    117  CD        15.8390    3.5210   38.2070 C.3   206  PRO206      0.0939
    118  N          9.7840    4.0560   41.5240 N.3   208  HIS208     -0.1241
    119  CA         9.5730    4.3160   42.9500 C.3   208  HIS208      0.1621
    120  C          8.3540    3.5160   43.4500 C.2   208  HIS208      0.2264
    121  O          7.2790    4.0710   43.6970 O.2   208  HIS208     -0.2867
    122  CB         9.3860    5.8040   43.1800 C.3   208  HIS208      0.0745
    123  CG         9.0980    6.1660   44.6020 C.ar  208  HIS208      0.0817
    124  ND1        9.9540    5.8760   45.6410 N.ar  208  HIS208     -0.2268
    125  CD2        8.0420    6.8070   45.1520 C.ar  208  HIS208      0.1154
    126  CE1        9.4330    6.3160   46.7730 C.ar  208  HIS208      0.1986
    127  NE2        8.2760    6.8930   46.5040 N.ar  208  HIS208     -0.2212
    128  N         15.5570    7.4180   40.7460 N.3   243  ASP243     -0.1225
    129  CA        14.3710    8.2290   40.5470 C.3   243  ASP243      0.1805
    130  C         14.6310    9.6780   41.0070 C.2   243  ASP243      0.2597
    131  O         15.7580   10.0630   41.3390 O.2   243  ASP243     -0.2718
    132  CB        13.1460    7.5820   41.2690 C.3   243  ASP243      0.1424
    133  CG        13.3870    7.3280   42.7600 C.2   243  ASP243      0.3668
    134  OD1       12.4550    6.8610   43.4710 O.co2 243  ASP243     -0.2456
    135  OD2       14.5020    7.5330   43.2450 O.co2 243  ASP243     -0.2456
    136  N         13.5970   10.5090   41.0040 N.am  244  ASP244     -0.1974
    137  CA        13.7620   11.8710   41.4890 C.3   244  ASP244      0.1709
    138  C         13.7730   11.8430   43.0080 C.2   244  ASP244      0.2293
    139  O         12.7120   11.7490   43.6570 O.2   244  ASP244     -0.2864
    140  CB        12.6580   12.8110   41.0160 C.3   244  ASP244      0.1436
    141  CG        12.8090   14.2210   41.6120 C.2   244  ASP244      0.3671
    142  OD1       11.8060   14.9440   41.6260 O.co2 244  ASP244     -0.2456
    143  OD2       13.9130   14.6030   42.0820 O.co2 244  ASP244     -0.2456
    144  N         10.6770   11.3050   45.4890 N.3   248  GLU248     -0.1245
    145  CA        10.5790    9.8590   45.4340 C.3   248  GLU248      0.1567
    146  C         11.7310    9.2960   46.2910 C.2   248  GLU248      0.2260
    147  O         11.9630    9.7810   47.3930 O.2   248  GLU248     -0.2867
    148  CB        10.6060    9.3790   43.9580 C.3   248  GLU248      0.0388
    149  CG         9.4700    9.9340   43.0910 C.3   248  GLU248      0.1160
    150  CD         9.5710    9.4870   41.6350 C.2   248  GLU248      0.3649
    151  OE1        8.6040    8.8390   41.1550 O.co2 248  GLU248     -0.2457
    152  OE2       10.6270    9.7490   40.9870 O.co2 248  GLU248     -0.2457
    153  N         19.3730   11.7690   40.7100 N.3   272  LEU272     -0.1245
    154  CA        18.6000   12.9500   40.2770 C.3   272  LEU272      0.1561
    155  C         18.0570   13.7080   41.5030 C.2   272  LEU272      0.2260
    156  O         17.4320   13.1080   42.3730 O.2   272  LEU272     -0.2867
    157  CB        17.4200   12.5390   39.3740 C.3   272  LEU272      0.0270
    158  CG        17.6510   12.1510   37.9140 C.3   272  LEU272      0.0019
    159  CD1       18.5290   10.9060   37.8250 C.3   272  LEU272      0.0001
    160  CD2       16.3040   11.8820   37.2280 C.3   272  LEU272      0.0001
    161  N         15.9140   17.1470   41.7820 N.3   274  CYS274     -0.1235
    162  CA        15.1880   18.1450   41.0070 C.3   274  CYS274      0.1677
    163  C         14.4560   19.0920   41.9530 C.2   274  CYS274      0.2270
    164  O         14.1360   18.7250   43.1000 O.2   274  CYS274     -0.2867
    165  CB        14.1630   17.4570   40.1060 C.3   274  CYS274      0.0956
    166  SG        14.8330   16.1130   39.0940 S.3   274  CYS274     -0.0801
@<TRIPOS>BOND
     1    30    31    2
     2    30    29    1
     3    28    29    1
     4    66    65    2
     5    29    32    1
     6    65    64    1
     7    64    63    1
     8    64    67    1
     9    22    23    2
    10    22    21    1
    11    39    40    1
    12    32    33    1
    13    41    42    2
    14    41    40    1
    15    40    43    1
    16    67    68    1
    17    33    34    1
    18    21    20    1
    19    21    24    1
    20    68    69    1
    21    34    35    1
    22    43    44    1
    23    24    25    1
    24    12    11    2
    25    74    75    1
    26    69    70    1
    27    81    82    1
    28    81    80    1
    29    58    57    2
    30    44    45   ar
    31    44    46   ar
    32    70    71    2
    33    45    47   ar
    34    77    76    2
    35    11    10    1
    36    35    36    2
    37    79    80    1
    38    79    78    1
    39    46    48   ar
    40    47    49   ar
    41    61    59    1
    42    26    25   ar
    43    25    27   ar
    44    57    56    1
    45     9    10    1
    46    48    49   ar
    47    37    36    1
    48    75    76    1
    49    75    78    1
    50    10    13    1
    51    76    83   am
    52    36    38    1
    53    73    71    1
    54    71    72    1
    55     3     2    1
    56     3     4    2
    57    56    59    1
    58    56    55    1
    59    59    60    1
    60     2     1    1
    61     2     5    1
    62    83    84    1
    63    91    89   ar
    64    91    92   ar
    65     6     5    1
    66     6     8    1
    67    13    14    1
    68   103   104    1
    69    89    88   ar
    70    92    90   ar
    71     5     7    1
    72    53    52    2
    73    62    60    1
    74    55    52   am
    75    16    14   ar
    76    16    18   ar
    77    14    15   ar
    78   107   104    1
    79   107   108    1
    80    84    85    1
    81    84    87    1
    82    52    51    1
    83   110   109    1
    84    88    90   ar
    85    88    87    1
    86   104   105    1
    87    18    19   ar
    88   106   105    2
    89    15    17   ar
    90    85    86    2
    91   109   108    1
    92    93    94    1
    93   105   111   am
    94    19    17   ar
    95    95    96    2
    96    95    94    1
    97    51    50    1
    98    51    54    1
    99    97    94    1
   100    97    98    1
   101   160   158    1
   102   111   117    1
   103   111   112    1
   104    98    99   ar
   105    98   100   ar
   106   159   158    1
   107   158   157    1
   108    99   101   ar
   109   117   116    1
   110   112   113    1
   111   112   115    1
   112   100   102   ar
   113   113   114    2
   114   101   102   ar
   115   166   165    1
   116   157   154    1
   117   115   116    1
   118   165   162    1
   119   154   153    1
   120   154   155    1
   121   129   128    1
   122   129   130    1
   123   129   132    1
   124   152   150   ar
   125   136   130   am
   126   136   137    1
   127   162   161    1
   128   162   163    1
   129   130   131    2
   130   140   137    1
   131   140   141    1
   132   151   150   ar
   133   132   133    1
   134   137   138    1
   135   155   156    2
   136   118   119    1
   137   141   142   ar
   138   141   143   ar
   139   150   149    1
   140   163   164    2
   141   133   135   ar
   142   133   134   ar
   143   119   122    1
   144   119   120    1
   145   138   139    2
   146   149   148    1
   147   122   123    1
   148   120   121    2
   149   148   145    1
   150   123   125   ar
   151   123   124   ar
   152   125   127   ar
   153   145   144    1
   154   145   146    1
   155   124   126   ar
   156   146   147    2
   157   127   126   ar
