@<TRIPOS>MOLECULE
tmp/1y6aA00.pdb
 178 169 0 0 0
SMALL
GASTEIGER

@<TRIPOS>ATOM
      1  N         -4.0160   26.1920   15.1400 N.3    21  LEU21      -0.1231
      2  CA        -3.3820   26.6880   16.3520 C.3    21  LEU21       0.1696
      3  C         -4.3450   27.6120   17.1060 C.2    21  LEU21       0.2632
      4  O         -4.2630   27.6880   18.3240 O.2    21  LEU21      -0.2714
      5  CB        -2.0760   27.4220   16.0250 C.3    21  LEU21       0.0284
      6  CG        -0.9500   26.5540   15.4700 C.3    21  LEU21       0.0019
      7  CD1        0.1260   27.4180   14.8470 C.3    21  LEU21       0.0001
      8  CD2       -0.3920   25.6560   16.5660 C.3    21  LEU21       0.0001
      9  N         -5.2510   28.2880   16.3840 N.am   22  GLY22      -0.1718
     10  CA        -6.2820   29.1140   17.0090 C.2    22  GLY22       0.1480
     11  C         -7.1360   29.9890   16.0920 C.2    22  GLY22       0.2820
     12  O         -7.1710   29.7980   14.8640 O.2    22  GLY22      -0.2669
     13  N         -7.8360   30.9410   16.7320 N.am   23  ARG23      -0.1943
     14  CA        -8.7350   31.9120   16.0800 C.3    23  ARG23       0.1600
     15  C         -8.1110   33.3120   16.0620 C.2    23  ARG23       0.2287
     16  O         -6.8980   33.4770   16.3150 O.2    23  ARG23      -0.2864
     17  CB       -10.0620   31.9660   16.8130 C.3    23  ARG23       0.0334
     18  CG       -10.8370   30.6530   16.6710 C.3    23  ARG23       0.0492
     19  CD       -11.6060   30.7140   15.3470 C.3    23  ARG23       0.2205
     20  NE       -12.5120   29.5190   15.2890 N.pl3  23  ARG23      -0.0865
     21  CZ       -12.0590   28.3250   14.9060 C.cat  23  ARG23       0.5346
     22  NH1      -10.8240   28.1060   14.4630 N.pl3  23  ARG23       0.1354
     23  NH2      -12.8370   27.2470   15.1250 N.pl3  23  ARG23       0.1354
     24  N         -5.6180   30.6100   12.4910 N.3    25  VAL25      -0.1245
     25  CA        -4.1890   30.2940   12.4550 C.3    25  VAL25       0.1561
     26  C         -3.9740   28.7800   12.4950 C.2    25  VAL25       0.2260
     27  O         -4.4660   28.1050   13.3930 O.2    25  VAL25      -0.2867
     28  CB        -3.4340   30.9200   13.6300 C.3    25  VAL25       0.0252
     29  CG1       -1.9100   30.7380   13.4490 C.3    25  VAL25       0.0019
     30  CG2       -3.7930   32.4130   13.7590 C.3    25  VAL25       0.0019
     31  N         -1.1220   25.3570   11.7270 N.3    27  GLU27      -0.1245
     32  CA         0.1400   24.7390   11.3190 C.3    27  GLU27       0.1567
     33  C          0.0440   24.2850    9.8830 C.2    27  GLU27       0.2260
     34  O         -1.0110   23.7960    9.4490 O.2    27  GLU27      -0.2867
     35  CB         0.4500   23.4890   12.1300 C.3    27  GLU27       0.0388
     36  CG         0.7770   23.7340   13.5110 C.3    27  GLU27       0.1160
     37  CD         1.1910   22.4690   14.2330 C.2    27  GLU27       0.3649
     38  OE1        1.8110   21.5800   13.6050 O.co2  27  GLU27      -0.2457
     39  OE2        0.9220   22.4120   15.4360 O.co2  27  GLU27      -0.2457
     40  N          3.5590   28.6400   10.6330 N.3    43  ALA43      -0.1245
     41  CA         2.2520   29.0900   11.0660 C.3    43  ALA43       0.1562
     42  C          1.5950   30.0060   10.0240 C.2    43  ALA43       0.2260
     43  O          2.1880   30.9830    9.5530 O.2    43  ALA43      -0.2867
     44  CB         2.3400   29.8000   12.4390 C.3    43  ALA43       0.0290
     45  N         -1.7050   32.4210    9.1070 N.3    45  LYS45      -0.1245
     46  CA        -2.9350   33.1750    9.3600 C.3    45  LYS45       0.1561
     47  C         -3.7120   33.3430    8.0430 C.2    45  LYS45       0.2260
     48  O         -3.1880   33.8160    7.0430 O.2    45  LYS45      -0.2867
     49  CB        -2.6080   34.5270    9.9970 C.3    45  LYS45       0.0271
     50  CG        -3.8030   35.2580   10.5870 C.3    45  LYS45       0.0035
     51  CD        -3.3450   36.5250   11.3320 C.3    45  LYS45       0.0206
     52  CE        -3.7960   36.5500   12.7870 C.3    45  LYS45       0.1093
     53  NZ        -3.5290   37.8890   13.4580 N.3    45  LYS45      -0.1314
     54  N         -1.6710   43.8760    8.6620 N.3    58  GLU58      -0.1245
     55  CA        -0.7310   43.0590    9.4140 C.3    58  GLU58       0.1567
     56  C          0.4790   42.5790    8.5640 C.2    58  GLU58       0.2260
     57  O          1.6420   42.6850    8.9960 O.2    58  GLU58      -0.2867
     58  CB        -1.4970   41.9140   10.0600 C.3    58  GLU58       0.0388
     59  CG        -0.6600   40.7890   10.5020 C.3    58  GLU58       0.1160
     60  CD        -1.3150   39.9220   11.5750 C.2    58  GLU58       0.3649
     61  OE1       -2.5700   39.7910   11.6390 O.co2  58  GLU58      -0.2457
     62  OE2       -0.5190   39.3730   12.3690 O.co2  58  GLU58      -0.2457
     63  N          8.4050   36.9980   16.1080 N.3    72  VAL72      -0.1245
     64  CA         7.8390   35.9950   15.2110 C.3    72  VAL72       0.1561
     65  C          7.8770   36.5630   13.7880 C.2    72  VAL72       0.2260
     66  O          7.0720   37.4260   13.4350 O.2    72  VAL72      -0.2867
     67  CB         6.4170   35.6040   15.6220 C.3    72  VAL72       0.0252
     68  CG1        5.8370   34.5600   14.6460 C.3    72  VAL72       0.0019
     69  CG2        6.3920   35.0570   17.0930 C.3    72  VAL72       0.0019
     70  N          4.1970   32.7860    8.8860 N.3    89  VAL89      -0.1231
     71  CA         5.1890   33.2260    9.8830 C.3    89  VAL89       0.1692
     72  C          5.8290   32.0200   10.5320 C.2    89  VAL89       0.2592
     73  O          5.3870   30.8880   10.3320 O.2    89  VAL89      -0.2718
     74  CB         4.5820   34.1860   10.9740 C.3    89  VAL89       0.0266
     75  CG1        3.9130   35.3680   10.3210 C.3    89  VAL89       0.0020
     76  CG2        3.5720   33.4570   11.9020 C.3    89  VAL89       0.0020
     77  N          6.9010   32.2700   11.2690 N.am   90  GLU90      -0.1966
     78  CA         7.6110   31.2620   11.9870 C.3    90  GLU90       0.1733
     79  C          6.7450   30.5020   12.9740 C.2    90  GLU90       0.2616
     80  O          5.9400   31.1050   13.6600 O.2    90  GLU90      -0.2715
     81  CB         8.7460   31.9100   12.7590 C.3    90  GLU90       0.0429
     82  CG         9.8770   32.4190   11.8140 C.3    90  GLU90       0.1163
     83  CD        10.9440   33.1660   12.5540 C.2    90  GLU90       0.3649
     84  OE1       10.6210   33.9550   13.4840 O.co2  90  GLU90      -0.2457
     85  OE2       12.1100   32.9780   12.1920 O.co2  90  GLU90      -0.2457
     86  N          6.9460   29.1860   13.0330 N.am   91  PHE91      -0.1960
     87  CA         6.2380   28.2810   13.9480 C.3    91  PHE91       0.1771
     88  C          7.1450   28.0590   15.1790 C.2    91  PHE91       0.2620
     89  O          8.3240   27.8340   15.0400 O.2    91  PHE91      -0.2715
     90  CB         5.9190   26.9460   13.2590 C.3    91  PHE91       0.0574
     91  CG         5.3190   25.8990   14.1740 C.ar   91  PHE91      -0.0200
     92  CD1        4.0140   26.0120   14.6310 C.ar   91  PHE91      -0.0042
     93  CD2        6.0640   24.7990   14.5670 C.ar   91  PHE91      -0.0042
     94  CE1        3.4670   25.0550   15.4630 C.ar   91  PHE91      -0.0003
     95  CE2        5.5270   23.8320   15.4010 C.ar   91  PHE91      -0.0003
     96  CZ         4.2250   23.9710   15.8580 C.ar   91  PHE91      -0.0000
     97  N          6.5510   28.1650   16.3610 N.am   92  CYS92      -0.1954
     98  CA         7.2190   28.1150   17.6420 C.3    92  CYS92       0.1843
     99  C          6.5860   26.9400   18.3620 C.2    92  CYS92       0.2625
    100  O          5.4710   27.0160   18.8670 O.2    92  CYS92      -0.2714
    101  CB         7.0150   29.4270   18.4030 C.3    92  CYS92       0.0997
    102  SG         7.6890   30.8590   17.5550 S.3    92  CYS92      -0.0797
    103  N          7.3270   25.8480   18.3160 N.am   93  LYS93      -0.1963
    104  CA         6.9170   24.5090   18.6730 C.3    93  LYS93       0.1728
    105  C          6.3770   24.3630   20.1000 C.2    93  LYS93       0.2616
    106  O          5.4510   23.5870   20.3270 O.2    93  LYS93      -0.2715
    107  CB         8.1770   23.6640   18.4670 C.3    93  LYS93       0.0311
    108  CG         8.2210   22.2810   18.9050 C.3    93  LYS93       0.0038
    109  CD         9.7100   21.8630   19.0340 C.3    93  LYS93       0.0206
    110  CE        10.0540   20.6220   18.2250 C.3    93  LYS93       0.1093
    111  NZ        11.2650   19.9320   18.8290 N.3    93  LYS93      -0.1314
    112  N          6.9370   25.1120   21.0540 N.am   94  PHE94      -0.1960
    113  CA         6.5480   24.9760   22.4680 C.3    94  PHE94       0.1771
    114  C          5.4060   25.8740   22.9320 C.2    94  PHE94       0.2620
    115  O          5.0570   25.8310   24.1060 O.2    94  PHE94      -0.2715
    116  CB         7.7710   25.1620   23.3690 C.3    94  PHE94       0.0574
    117  CG         8.8340   24.1410   23.1160 C.ar   94  PHE94      -0.0200
    118  CD1        8.7010   22.8610   23.6220 C.ar   94  PHE94      -0.0042
    119  CD2        9.9170   24.4370   22.3170 C.ar   94  PHE94      -0.0042
    120  CE1        9.6630   21.8770   23.3460 C.ar   94  PHE94      -0.0003
    121  CE2       10.8790   23.4740   22.0280 C.ar   94  PHE94      -0.0003
    122  CZ        10.7570   22.2000   22.5380 C.ar   94  PHE94      -0.0000
    123  N          4.8340   26.6600   22.0120 N.am   95  GLY95      -0.1940
    124  CA         3.7120   27.5480   22.3120 C.3    95  GLY95       0.2014
    125  C          4.0890   28.7490   23.1710 C.2    95  GLY95       0.2638
    126  O          5.2340   29.1540   23.1930 O.2    95  GLY95      -0.2714
    127  N          3.1210   29.2970   23.9020 N.am   96  ASN96      -0.1972
    128  CA         3.3130   30.5320   24.6290 C.3    96  ASN96       0.1688
    129  C          4.0750   30.3300   25.9430 C.2    96  ASN96       0.2292
    130  O          4.0000   29.2550   26.5740 O.2    96  ASN96      -0.2864
    131  CB         1.9870   31.2970   24.7830 C.3    96  ASN96       0.1181
    132  CG         1.1580   30.8710   26.0020 C.2    96  ASN96       0.2629
    133  OD1        1.4270   31.2930   27.1290 O.2    96  ASN96      -0.2716
    134  ND2        0.0970   30.1210   25.7590 N.am   96  ASN96      -0.0877
    135  N          1.9720   35.4740   27.6660 N.3   146  ARG146     -0.1231
    136  CA         1.1020   34.7700   26.6930 C.3   146  ARG146      0.1694
    137  C          1.3740   35.2020   25.2430 C.2   146  ARG146      0.2592
    138  O          1.0340   34.4860   24.3120 O.2   146  ARG146     -0.2718
    139  CB        -0.3900   34.9630   27.0130 C.3   146  ARG146      0.0321
    140  CG        -0.8930   36.4280   26.9060 C.3   146  ARG146      0.0489
    141  CD        -2.1220   36.7690   27.8680 C.3   146  ARG146      0.2205
    142  NE        -1.8990   37.9940   28.6790 N.pl3 146  ARG146     -0.0865
    143  CZ        -2.2070   39.2480   28.3120 C.cat 146  ARG146      0.5346
    144  NH1       -2.7830   39.5180   27.1520 N.pl3 146  ARG146      0.1354
    145  NH2       -1.9120   40.2540   29.1150 N.pl3 146  ARG146      0.1354
    146  N          1.9970   36.3630   25.0510 N.am  147  ASN147     -0.1974
    147  CA         2.3230   36.8700   23.7000 C.3   147  ASN147      0.1688
    148  C          3.7840   36.7000   23.3340 C.2   147  ASN147      0.2292
    149  O          4.2690   37.3230   22.3980 O.2   147  ASN147     -0.2864
    150  CB         1.8750   38.3220   23.5630 C.3   147  ASN147      0.1181
    151  CG         0.3830   38.4490   23.6040 C.2   147  ASN147      0.2629
    152  OD1       -0.3230   37.6180   23.0230 O.2   147  ASN147     -0.2716
    153  ND2       -0.1190   39.4700   24.2810 N.am  147  ASN147     -0.0877
    154  N          6.3430   33.5220   22.3960 N.3   149  LEU149     -0.1245
    155  CA         6.3220   32.1050   22.0760 C.3   149  LEU149      0.1561
    156  C          7.7130   31.5430   22.2210 C.2   149  LEU149      0.2260
    157  O          8.6930   32.2600   22.0870 O.2   149  LEU149     -0.2867
    158  CB         5.8240   31.8410   20.6300 C.3   149  LEU149      0.0270
    159  CG         4.4850   32.4500   20.2220 C.3   149  LEU149      0.0019
    160  CD1        4.0910   32.0000   18.8290 C.3   149  LEU149      0.0001
    161  CD2        3.3870   32.0710   21.2140 C.3   149  LEU149      0.0001
    162  N          5.2270   37.9150   19.8090 N.3   159  CYS159     -0.1235
    163  CA         4.1450   38.0700   18.8240 C.3   159  CYS159      0.1677
    164  C          3.8720   39.5460   18.5290 C.2   159  CYS159      0.2270
    165  O          3.4880   40.2670   19.4490 O.2   159  CYS159     -0.2867
    166  CB         2.8660   37.4860   19.3690 C.3   159  CYS159      0.0956
    167  SG         3.0040   35.7800   19.7230 S.3   159  CYS159     -0.0801
    168  N          1.3570   41.2140   16.6930 N.3   161  PHE161     -0.1241
    169  CA         0.0630   41.2300   15.9860 C.3   161  PHE161      0.1605
    170  C         -1.1410   41.0160   16.9380 C.2   161  PHE161      0.2264
    171  O         -1.7860   39.9360   16.9490 O.2   161  PHE161     -0.2867
    172  CB         0.0280   40.2390   14.7870 C.3   161  PHE161      0.0534
    173  CG         0.9870   39.0380   14.9000 C.ar  161  PHE161     -0.0203
    174  CD1        0.8740   38.1110   15.9350 C.ar  161  PHE161     -0.0042
    175  CD2        1.9790   38.8220   13.9280 C.ar  161  PHE161     -0.0042
    176  CE1        1.7580   37.0130   16.0230 C.ar  161  PHE161     -0.0003
    177  CE2        2.8540   37.7270   14.0160 C.ar  161  PHE161     -0.0003
    178  CZ         2.7360   36.8270   15.0710 C.ar  161  PHE161     -0.0000
@<TRIPOS>BOND
     1    48    47    2
     2    47    46    1
     3    56    57    2
     4    56    55    1
     5    54    55    1
     6    70    71    1
     7    45    46    1
     8    46    49    1
     9    55    58    1
    10    34    33    2
    11    43    42    2
    12    33    32    1
    13    71    72    1
    14    71    74    1
    15    49    50    1
    16    42    41    1
    17    58    59    1
    18    75    74    1
    19    73    72    2
    20    59    60    1
    21    72    77   am
    22    50    51    1
    23    40    41    1
    24    74    76    1
    25    41    44    1
    26    77    78    1
    27    32    31    1
    28    32    35    1
    29    51    52    1
    30    60    61   ar
    31    60    62   ar
    32    82    83    1
    33    82    81    1
    34    78    81    1
    35    78    79    1
    36    35    36    1
    37    85    83   ar
    38    25    24    1
    39    25    26    1
    40    25    28    1
    41    26    27    2
    42    83    84   ar
    43    52    53    1
    44    79    86   am
    45    79    80    2
    46    86    87    1
    47    90    87    1
    48    90    91    1
    49    66    65    2
    50    29    28    1
    51    36    37    1
    52    38    37   ar
    53    28    30    1
    54    65    64    1
    55   175   177   ar
    56   175   173   ar
    57    87    88    1
    58   177   178   ar
    59    91    93   ar
    60    91    92   ar
    61    37    39   ar
    62    22    21    1
    63    93    95   ar
    64    92    94   ar
    65    68    67    1
    66   172   173    1
    67   172   169    1
    68     7     6    1
    69    12    11    2
    70   173   174   ar
    71    21    23    1
    72    21    20    2
    73    89    88    2
    74   178   176   ar
    75     1     2    1
    76    88    97   am
    77    64    67    1
    78    64    63    1
    79    20    19    1
    80    19    18    1
    81    95    96   ar
    82    94    96   ar
    83     6     5    1
    84     6     8    1
    85    67    69    1
    86   174   176   ar
    87   169   168    1
    88   169   170    1
    89     5     2    1
    90    15    14    1
    91    15    16    2
    92    14    13    1
    93    14    17    1
    94    11    13   am
    95    11    10    1
    96     2     3    1
    97    97    98    1
    98     9    10    2
    99     9     3    1
   100    18    17    1
   101   170   171    2
   102     3     4    2
   103   102   101    1
   104    98    99    1
   105    98   101    1
   106   110   111    1
   107   110   109    1
   108   103    99   am
   109   103   104    1
   110    99   100    2
   111   107   104    1
   112   107   108    1
   113   164   163    1
   114   164   165    2
   115   104   105    1
   116   163   166    1
   117   163   162    1
   118   160   159    1
   119   108   109    1
   120   166   167    1
   121   105   106    2
   122   105   112   am
   123   159   158    1
   124   159   161    1
   125   158   155    1
   126   112   113    1
   127   123   124    1
   128   123   114   am
   129   121   119   ar
   130   121   122   ar
   131   155   156    1
   132   155   154    1
   133   157   156    2
   134   124   125    1
   135   119   117   ar
   136   149   148    2
   137   113   114    1
   138   113   116    1
   139   122   120   ar
   140   114   115    2
   141   152   151    2
   142   117   116    1
   143   117   118   ar
   144   125   126    2
   145   125   127   am
   146   148   147    1
   147   120   118   ar
   148   150   151    1
   149   150   147    1
   150   151   153   am
   151   147   146    1
   152   127   128    1
   153   138   137    2
   154   128   131    1
   155   128   129    1
   156   131   132    1
   157   146   137   am
   158   137   136    1
   159   134   132   am
   160   129   130    2
   161   132   133    2
   162   136   139    1
   163   136   135    1
   164   140   139    1
   165   140   141    1
   166   144   143    1
   167   141   142    1
   168   143   142    2
   169   143   145    1
