@<TRIPOS>MOLECULE
tmp/1y6bA00.pdb
 181 171 0 0 0
SMALL
GASTEIGER

@<TRIPOS>ATOM
      1  N         -4.1110   25.9990   15.0220 N.3    22  LEU22      -0.1231
      2  CA        -3.5640   26.6030   16.2600 C.3    22  LEU22       0.1693
      3  C         -4.6610   27.3820   16.9920 C.2    22  LEU22       0.2593
      4  O         -4.7860   27.3030   18.2180 O.2    22  LEU22      -0.2718
      5  CB        -2.3600   27.5050   15.9660 C.3    22  LEU22       0.0284
      6  CG        -1.1180   26.7330   15.5110 C.3    22  LEU22       0.0019
      7  CD1       -0.0630   27.6530   14.9500 C.3    22  LEU22       0.0001
      8  CD2       -0.5640   25.9060   16.6560 C.3    22  LEU22       0.0001
      9  N         -5.4590   28.1160   16.2250 N.am   23  GLY23      -0.1942
     10  CA        -6.6900   28.6460   16.7370 C.3    23  GLY23       0.2014
     11  C         -7.2130   29.8010   15.9260 C.2    23  GLY23       0.2639
     12  O         -7.1630   29.7870   14.6830 O.2    23  GLY23      -0.2714
     13  N         -7.7480   30.7770   16.6700 N.am   24  ARG24      -0.1963
     14  CA        -8.1690   32.0730   16.1500 C.3    24  ARG24       0.1729
     15  C         -7.1790   33.1730   16.6030 C.2    24  ARG24       0.2616
     16  O         -7.1730   33.5820   17.7840 O.2    24  ARG24      -0.2715
     17  CB        -9.5860   32.4010   16.6410 C.3    24  ARG24       0.0348
     18  CG       -10.6840   31.7400   15.8390 C.3    24  ARG24       0.0492
     19  CD       -11.0730   30.3530   16.3830 C.3    24  ARG24       0.2205
     20  NE       -12.3530   29.8800   15.8290 N.pl3  24  ARG24      -0.0865
     21  CZ       -13.5750   30.2020   16.2900 C.cat  24  ARG24       0.5346
     22  NH1      -13.7420   31.0120   17.3430 N.pl3  24  ARG24       0.1354
     23  NH2      -14.6560   29.7020   15.6890 N.pl3  24  ARG24       0.1354
     24  N         -6.3490   33.6370   15.6720 N.am   25  GLY25      -0.1955
     25  CA        -5.4880   34.8020   15.8970 C.3    25  GLY25       0.1869
     26  C         -6.0450   36.0470   15.2170 C.2    25  GLY25       0.2309
     27  O         -6.9870   36.6980   15.7180 O.2    25  GLY25      -0.2863
     28  N         -5.5830   30.5780   12.3040 N.3    28  VAL28      -0.1245
     29  CA        -4.1670   30.2700   12.4000 C.3    28  VAL28       0.1561
     30  C         -3.9960   28.7440   12.4430 C.2    28  VAL28       0.2260
     31  O         -4.5880   28.0490   13.2860 O.2    28  VAL28      -0.2867
     32  CB        -3.4820   30.9250   13.6250 C.3    28  VAL28       0.0252
     33  CG1       -1.9820   30.7020   13.5900 C.3    28  VAL28       0.0019
     34  CG2       -3.7430   32.4030   13.6730 C.3    28  VAL28       0.0019
     35  N         -1.0390   25.3430   11.6460 N.3    30  GLU30      -0.1245
     36  CA         0.2330   24.7860   11.2520 C.3    30  GLU30       0.1567
     37  C          0.1220   24.3130    9.8120 C.2    30  GLU30       0.2260
     38  O         -0.9570   23.8600    9.3770 O.2    30  GLU30      -0.2867
     39  CB         0.6160   23.5900   12.1000 C.3    30  GLU30       0.0388
     40  CG         0.7960   23.8770   13.5350 C.3    30  GLU30       0.1160
     41  CD         1.1290   22.6270   14.3340 C.2    30  GLU30       0.3649
     42  OE1        1.6470   21.6450   13.7570 O.co2  30  GLU30      -0.2457
     43  OE2        0.8550   22.6540   15.5410 O.co2  30  GLU30      -0.2457
     44  N          3.6620   28.6430   10.6200 N.3    46  ALA46      -0.1245
     45  CA         2.3450   29.0730   11.0990 C.3    46  ALA46       0.1562
     46  C          1.6760   29.9950   10.0580 C.2    46  ALA46       0.2260
     47  O          2.2880   30.9430    9.5770 O.2    46  ALA46      -0.2867
     48  CB         2.4350   29.8000   12.4740 C.3    46  ALA46       0.0290
     49  N         -1.6770   32.3640    8.9410 N.3    48  LYS48      -0.1245
     50  CA        -2.9500   33.0650    9.2100 C.3    48  LYS48       0.1561
     51  C         -3.6920   33.2160    7.8950 C.2    48  LYS48       0.2260
     52  O         -3.1450   33.7280    6.9250 O.2    48  LYS48      -0.2867
     53  CB        -2.7230   34.4190    9.8940 C.3    48  LYS48       0.0271
     54  CG        -4.0240   35.1360   10.2400 C.3    48  LYS48       0.0035
     55  CD        -3.7920   36.4850   10.9170 C.3    48  LYS48       0.0206
     56  CE        -3.5280   36.3570   12.4330 C.3    48  LYS48       0.1093
     57  NZ        -3.6470   37.7250   13.1800 N.3    48  LYS48      -0.1314
     58  N         -1.5650   43.8250    8.3450 N.3    63  GLU63      -0.1245
     59  CA        -0.6300   43.0090    9.1330 C.3    63  GLU63       0.1567
     60  C          0.6060   42.5740    8.3420 C.2    63  GLU63       0.2260
     61  O          1.7480   42.7370    8.8000 O.2    63  GLU63      -0.2867
     62  CB        -1.3200   41.7660    9.7200 C.3    63  GLU63       0.0388
     63  CG        -0.3880   40.9900   10.5960 C.3    63  GLU63       0.1160
     64  CD        -0.9500   39.6450   11.1000 C.2    63  GLU63       0.3649
     65  OE1       -2.1610   39.5470   11.3870 O.co2  63  GLU63      -0.2457
     66  OE2       -0.1410   38.6900   11.2020 O.co2  63  GLU63      -0.2457
     67  N          8.4660   37.0730   16.1800 N.3    77  VAL77      -0.1245
     68  CA         7.9240   36.0240   15.3200 C.3    77  VAL77       0.1561
     69  C          7.9770   36.5520   13.9110 C.2    77  VAL77       0.2260
     70  O          7.1670   37.4210   13.5620 O.2    77  VAL77      -0.2867
     71  CB         6.4810   35.6430   15.7110 C.3    77  VAL77       0.0252
     72  CG1        5.8840   34.6580   14.6710 C.3    77  VAL77       0.0019
     73  CG2        6.4660   35.0100   17.1400 C.3    77  VAL77       0.0019
     74  N         -0.8790   34.5260    5.3450 N.3    92  VAL92      -0.1245
     75  CA         0.3390   35.1680    5.8510 C.3    92  VAL92       0.1561
     76  C          1.0890   34.1250    6.6380 C.2    92  VAL92       0.2260
     77  O          0.5560   33.5480    7.5520 O.2    92  VAL92      -0.2867
     78  CB         0.0130   36.3910    6.7300 C.3    92  VAL92       0.0252
     79  CG1        1.2800   36.9600    7.3800 C.3    92  VAL92       0.0019
     80  CG2       -0.7340   37.4760    5.9140 C.3    92  VAL92       0.0019
     81  N          4.3140   32.7950    8.8970 N.3    94  VAL94      -0.1231
     82  CA         5.2860   33.2360    9.8950 C.3    94  VAL94       0.1692
     83  C          5.9350   32.0000   10.5270 C.2    94  VAL94       0.2592
     84  O          5.5080   30.8760   10.2780 O.2    94  VAL94      -0.2718
     85  CB         4.6400   34.1840   10.9890 C.3    94  VAL94       0.0266
     86  CG1        3.9470   35.2850   10.3430 C.3    94  VAL94       0.0020
     87  CG2        3.6740   33.4700   11.8950 C.3    94  VAL94       0.0020
     88  N          7.0180   32.2270   11.2570 N.am   95  GLU95      -0.1966
     89  CA         7.7010   31.2130   11.9940 C.3    95  GLU95       0.1733
     90  C          6.8240   30.4760   12.9890 C.2    95  GLU95       0.2616
     91  O          6.0170   31.0870   13.6560 O.2    95  GLU95      -0.2715
     92  CB         8.8660   31.8250   12.7640 C.3    95  GLU95       0.0429
     93  CG         9.9250   32.4700   11.8540 C.3    95  GLU95       0.1163
     94  CD        10.9930   33.1580   12.6520 C.2    95  GLU95       0.3649
     95  OE1       10.6770   33.8860   13.6400 O.co2  95  GLU95      -0.2457
     96  OE2       12.1500   32.9620   12.2920 O.co2  95  GLU95      -0.2457
     97  N          7.0470   29.1650   13.0910 N.am   96  PHE96      -0.1960
     98  CA         6.3080   28.2870   13.9740 C.3    96  PHE96       0.1771
     99  C          7.1810   28.0280   15.1920 C.2    96  PHE96       0.2620
    100  O          8.3530   27.7680   15.0470 O.2    96  PHE96      -0.2715
    101  CB         5.9570   26.9620   13.2740 C.3    96  PHE96       0.0574
    102  CG         5.3600   25.9110   14.1840 C.ar   96  PHE96      -0.0200
    103  CD1        4.0520   26.0280   14.6580 C.ar   96  PHE96      -0.0042
    104  CD2        6.0910   24.7930   14.5290 C.ar   96  PHE96      -0.0042
    105  CE1        3.5140   25.0650   15.4510 C.ar   96  PHE96      -0.0003
    106  CE2        5.5610   23.7910   15.3400 C.ar   96  PHE96      -0.0003
    107  CZ         4.2660   23.9450   15.8250 C.ar   96  PHE96      -0.0000
    108  N          6.5690   28.1200   16.3730 N.am   97  CYS97      -0.1954
    109  CA         7.2540   28.0430   17.6550 C.3    97  CYS97       0.1843
    110  C          6.5960   26.8790   18.3650 C.2    97  CYS97       0.2625
    111  O          5.4730   26.9870   18.8870 O.2    97  CYS97      -0.2714
    112  CB         7.0870   29.3620   18.4420 C.3    97  CYS97       0.0997
    113  SG         7.6850   30.8380   17.5880 S.3    97  CYS97      -0.0797
    114  N          7.2970   25.7520   18.3440 N.am   98  LYS98      -0.1963
    115  CA         6.6890   24.4740   18.6340 C.3    98  LYS98       0.1728
    116  C          6.2770   24.2850   20.0650 C.2    98  LYS98       0.2616
    117  O          5.4030   23.4720   20.3090 O.2    98  LYS98      -0.2715
    118  CB         7.5450   23.2870   18.1400 C.3    98  LYS98       0.0311
    119  CG         8.8720   23.0360   18.8100 C.3    98  LYS98       0.0038
    120  CD         9.2900   21.5810   18.5630 C.3    98  LYS98       0.0206
    121  CE        10.7590   21.3860   18.7440 C.3    98  LYS98       0.1093
    122  NZ        11.1580   19.9770   19.2130 N.3    98  LYS98      -0.1314
    123  N          6.8190   25.0710   20.9960 N.am   99  PHE99      -0.1960
    124  CA         6.4950   24.8900   22.4260 C.3    99  PHE99       0.1771
    125  C          5.3690   25.7750   22.9380 C.2    99  PHE99       0.2620
    126  O          5.0670   25.7240   24.1180 O.2    99  PHE99      -0.2715
    127  CB         7.7410   25.0680   23.3180 C.3    99  PHE99       0.0574
    128  CG         8.8280   24.0820   23.0110 C.ar   99  PHE99      -0.0200
    129  CD1        8.6580   22.7480   23.3220 C.ar   99  PHE99      -0.0042
    130  CD2        9.9620   24.4690   22.3150 C.ar   99  PHE99      -0.0042
    131  CE1        9.6380   21.8050   22.9870 C.ar   99  PHE99      -0.0003
    132  CE2       10.9580   23.5450   21.9820 C.ar   99  PHE99      -0.0003
    133  CZ        10.8030   22.2230   22.3060 C.ar   99  PHE99      -0.0000
    134  N          4.7970   26.5920   22.0530 N.am  100  GLY100     -0.1940
    135  CA         3.6820   27.4640   22.4030 C.3   100  GLY100      0.2014
    136  C          4.1280   28.6470   23.2320 C.2   100  GLY100      0.2638
    137  O          5.3010   29.0450   23.1940 O.2   100  GLY100     -0.2714
    138  N          3.1770   29.1960   23.9870 N.am  101  ASN101     -0.1972
    139  CA         3.3660   30.4150   24.7090 C.3   101  ASN101      0.1688
    140  C          4.0890   30.1980   26.0320 C.2   101  ASN101      0.2292
    141  O          4.0210   29.1240   26.6440 O.2   101  ASN101     -0.2864
    142  CB         2.0450   31.1840   24.8510 C.3   101  ASN101      0.1181
    143  CG         1.1870   30.7280   26.0400 C.2   101  ASN101      0.2629
    144  OD1        1.4340   31.1280   27.1760 O.2   101  ASN101     -0.2716
    145  ND2        0.1520   29.9640   25.7650 N.am  101  ASN101     -0.0877
    146  N          1.8610   35.3500   27.6750 N.3   150  ARG150     -0.1245
    147  CA         1.0250   34.6320   26.7260 C.3   150  ARG150      0.1563
    148  C          1.3060   35.0690   25.2710 C.2   150  ARG150      0.2260
    149  O          0.9410   34.3720   24.3430 O.2   150  ARG150     -0.2867
    150  CB        -0.4810   34.8200   27.0260 C.3   150  ARG150      0.0307
    151  CG        -0.9550   36.2570   26.7250 C.3   150  ARG150      0.0489
    152  CD        -2.4910   36.5840   26.8990 C.3   150  ARG150      0.2205
    153  NE        -2.6200   38.0480   27.0970 N.pl3 150  ARG150     -0.0865
    154  CZ        -2.4330   38.6770   28.2640 C.cat 150  ARG150      0.5346
    155  NH1       -2.1690   37.9760   29.3660 N.pl3 150  ARG150      0.1354
    156  NH2       -2.5080   40.0090   28.3360 N.pl3 150  ARG150      0.1354
    157  N          6.3630   33.4360   22.4740 N.3   153  LEU153     -0.1245
    158  CA         6.3820   32.0300   22.1370 C.3   153  LEU153      0.1561
    159  C          7.7720   31.4430   22.2410 C.2   153  LEU153      0.2260
    160  O          8.7590   32.1100   21.9960 O.2   153  LEU153     -0.2867
    161  CB         5.8380   31.7740   20.7280 C.3   153  LEU153      0.0270
    162  CG         4.5030   32.4210   20.3880 C.3   153  LEU153      0.0019
    163  CD1        4.1300   32.0740   18.9440 C.3   153  LEU153      0.0001
    164  CD2        3.3730   32.0380   21.3710 C.3   153  LEU153      0.0001
    165  N          5.2320   37.7610   19.9550 N.3   163  CYS163     -0.1235
    166  CA         4.1720   37.8510   18.9400 C.3   163  CYS163      0.1677
    167  C          3.9320   39.3100   18.6370 C.2   163  CYS163      0.2270
    168  O          3.5170   40.0640   19.5150 O.2   163  CYS163     -0.2867
    169  CB         2.9060   37.2640   19.4590 C.3   163  CYS163      0.0956
    170  SG         3.1100   35.5770   19.7150 S.3   163  CYS163     -0.0801
    171  N          2.2290   40.7960   15.9610 N.3   165  PHE165     -0.1241
    172  CA         0.8300   41.0690   15.5760 C.3   165  PHE165      0.1605
    173  C          0.1030   41.8010   16.7380 C.2   165  PHE165      0.2264
    174  O         -0.9710   42.4030   16.5610 O.2   165  PHE165     -0.2867
    175  CB         0.0880   39.7630   15.1780 C.3   165  PHE165      0.0534
    176  CG         0.9950   38.5460   15.0820 C.ar  165  PHE165     -0.0203
    177  CD1        1.8950   38.3960   13.9990 C.ar  165  PHE165     -0.0042
    178  CD2        0.9810   37.5690   16.0750 C.ar  165  PHE165     -0.0042
    179  CE1        2.7570   37.2930   13.9150 C.ar  165  PHE165     -0.0003
    180  CE2        1.8550   36.4550   16.0040 C.ar  165  PHE165     -0.0003
    181  CZ         2.7350   36.3190   14.9220 C.ar  165  PHE165     -0.0000
@<TRIPOS>BOND
     1    74    75    1
     2    75    76    1
     3    75    78    1
     4    80    78    1
     5    76    77    2
     6    78    79    1
     7    52    51    2
     8    51    50    1
     9    60    61    2
    10    60    59    1
    11    58    59    1
    12    81    82    1
    13    49    50    1
    14    59    62    1
    15    50    53    1
    16    38    37    2
    17    47    46    2
    18    62    63    1
    19    37    36    1
    20    53    54    1
    21    82    83    1
    22    82    85    1
    23    46    45    1
    24    54    55    1
    25    84    83    2
    26    86    85    1
    27    83    88   am
    28    63    64    1
    29    44    45    1
    30    55    56    1
    31    85    87    1
    32    45    48    1
    33    64    66   ar
    34    64    65   ar
    35    36    35    1
    36    36    39    1
    37    88    89    1
    38    93    94    1
    39    93    92    1
    40    89    92    1
    41    89    90    1
    42    39    40    1
    43    96    94   ar
    44    28    29    1
    45    29    30    1
    46    29    32    1
    47    56    57    1
    48    30    31    2
    49    94    95   ar
    50    90    97   am
    51    90    91    2
    52    97    98    1
    53   101    98    1
    54   101   102    1
    55    40    41    1
    56    70    69    2
    57    33    32    1
    58    32    34    1
    59    42    41   ar
    60    69    68    1
    61   179   177   ar
    62   179   181   ar
    63    98    99    1
    64   177   176   ar
    65   102   104   ar
    66   102   103   ar
    67    41    43   ar
    68   104   106   ar
    69   103   105   ar
    70    72    71    1
    71    12    11    2
    72   181   180   ar
    73     7     6    1
    74     1     2    1
    75   100    99    2
    76   176   175    1
    77   176   178   ar
    78   175   172    1
    79    99   108   am
    80    26    27    2
    81    26    25    1
    82    68    71    1
    83    68    67    1
    84   106   107   ar
    85   105   107   ar
    86     6     5    1
    87     6     8    1
    88   172   171    1
    89   172   173    1
    90    24    25    1
    91    24    15   am
    92    23    21    1
    93    71    73    1
    94    20    21    2
    95    20    19    1
    96    18    19    1
    97    18    17    1
    98    11    13   am
    99    11    10    1
   100     5     2    1
   101   180   178   ar
   102    14    15    1
   103    14    17    1
   104    14    13    1
   105     9    10    1
   106     9     3   am
   107     2     3    1
   108    21    22    1
   109   108   109    1
   110   174   173    2
   111    15    16    2
   112     3     4    2
   113   113   112    1
   114   109   110    1
   115   109   112    1
   116   118   115    1
   117   118   119    1
   118   114   110   am
   119   114   115    1
   120   110   111    2
   121   120   121    1
   122   120   119    1
   123   115   116    1
   124   167   166    1
   125   167   168    2
   126   121   122    1
   127   166   169    1
   128   166   165    1
   129   163   162    1
   130   169   170    1
   131   116   117    2
   132   116   123   am
   133   162   161    1
   134   162   164    1
   135   161   158    1
   136   123   124    1
   137   132   133   ar
   138   132   130   ar
   139   160   159    2
   140   134   135    1
   141   134   125   am
   142   158   159    1
   143   158   157    1
   144   133   131   ar
   145   130   128   ar
   146   135   136    1
   147   124   125    1
   148   124   127    1
   149   125   126    2
   150   131   129   ar
   151   128   127    1
   152   128   129   ar
   153   137   136    2
   154   136   138   am
   155   138   139    1
   156   149   148    2
   157   139   142    1
   158   139   140    1
   159   142   143    1
   160   148   147    1
   161   145   143   am
   162   140   141    2
   163   143   144    2
   164   151   152    1
   165   151   150    1
   166   147   150    1
   167   147   146    1
   168   152   153    1
   169   153   154    2
   170   154   156    1
   171   154   155    1
