@<TRIPOS>MOLECULE
tmp/1y6fC00.pdb
 236 232 0 0 0
SMALL
GASTEIGER

@<TRIPOS>ATOM
      1  N         26.5340   -5.7070   48.8280 N.3    16  GLY16      -0.1210
      2  CA        27.0910   -6.9750   49.2500 C.3    16  GLY16       0.1956
      3  C         26.1150   -8.1160   49.4800 C.2    16  GLY16       0.2612
      4  O         26.4470   -9.0820   50.1650 O.2    16  GLY16      -0.2717
      5  N         24.9150   -8.0200   48.9240 N.am   17  CYS17      -0.1956
      6  CA        23.9440   -9.0990   49.0740 C.3    17  CYS17       0.1843
      7  C         23.4520   -9.5750   47.7060 C.2    17  CYS17       0.2626
      8  O         24.2300   -9.6670   46.7520 O.2    17  CYS17      -0.2714
      9  CB        22.7630   -8.6470   49.9420 C.3    17  CYS17       0.0997
     10  SG        23.2150   -8.1280   51.6270 S.3    17  CYS17      -0.0797
     11  N         22.1600   -9.8710   47.6080 N.am   18  GLY18      -0.1940
     12  CA        21.5910  -10.3540   46.3520 C.3    18  GLY18       0.2014
     13  C         21.8540   -9.5710   45.0780 C.2    18  GLY18       0.2638
     14  O         22.2280  -10.1400   44.0540 O.2    18  GLY18      -0.2714
     15  N         21.6390   -8.2640   45.1290 N.am   19  VAL19      -0.1977
     16  CA        21.8540   -7.4190   43.9710 C.3    19  VAL19       0.1596
     17  C         23.3200   -7.4190   43.5450 C.2    19  VAL19       0.2287
     18  O         23.6240   -7.4840   42.3520 O.2    19  VAL19      -0.2864
     19  CB        21.4190   -5.9930   44.2690 C.3    19  VAL19       0.0276
     20  CG1       21.8100   -5.0840   43.1170 C.3    19  VAL19       0.0022
     21  CG2       19.9050   -5.9590   44.5060 C.3    19  VAL19       0.0022
     22  N         25.4650   -9.7720   44.1490 N.3    21  LYS21      -0.1231
     23  CA        25.7540  -11.1030   43.6510 C.3    21  LYS21       0.1693
     24  C         25.2040  -11.2870   42.2390 C.2    21  LYS21       0.2592
     25  O         25.8440  -11.9080   41.3950 O.2    21  LYS21      -0.2718
     26  CB        25.1610  -12.1510   44.5920 C.3    21  LYS21       0.0285
     27  CG        25.3400  -13.5870   44.1390 C.3    21  LYS21       0.0035
     28  CD        26.8090  -13.9510   43.9950 C.3    21  LYS21       0.0206
     29  CE        26.9690  -15.4460   43.7480 C.3    21  LYS21       0.1093
     30  NZ        28.4020  -15.8340   43.5820 N.3    21  LYS21      -0.1314
     31  N         24.0300  -10.7320   41.9670 N.am   22  PHE22      -0.1976
     32  CA        23.4370  -10.8880   40.6360 C.3    22  PHE22       0.1639
     33  C         24.2920  -10.1840   39.6030 C.2    22  PHE22       0.2290
     34  O         24.5500  -10.7240   38.5410 O.2    22  PHE22      -0.2864
     35  CB        22.0120  -10.3170   40.6120 C.3    22  PHE22       0.0560
     36  CG        21.3900  -10.2730   39.2490 C.ar   22  PHE22      -0.0200
     37  CD1       20.8520  -11.4160   38.6770 C.ar   22  PHE22      -0.0042
     38  CD2       21.3060   -9.0710   38.5530 C.ar   22  PHE22      -0.0042
     39  CE1       20.2220  -11.3650   37.4250 C.ar   22  PHE22      -0.0003
     40  CE2       20.6790   -9.0030   37.2930 C.ar   22  PHE22      -0.0003
     41  CZ        20.1350  -10.1510   36.7310 C.ar   22  PHE22      -0.0000
     42  N         28.4340   -4.9590   54.5710 N.3    49  ARG49      -0.1245
     43  CA        28.7390   -6.1480   53.7820 C.3    49  ARG49       0.1563
     44  C         29.3070   -5.8800   52.3930 C.2    49  ARG49       0.2260
     45  O         29.0830   -6.6540   51.4680 O.2    49  ARG49      -0.2867
     46  CB        27.4640   -6.9870   53.6860 C.3    49  ARG49       0.0307
     47  CG        26.4420   -6.5650   54.7340 C.3    49  ARG49       0.0489
     48  CD        25.2280   -7.4590   54.7990 C.3    49  ARG49       0.2205
     49  NE        25.5340   -8.7520   55.3950 N.pl3  49  ARG49      -0.0865
     50  CZ        24.6640   -9.4620   56.1060 C.cat  49  ARG49       0.5346
     51  NH1       23.4340   -9.0050   56.3120 N.pl3  49  ARG49       0.1354
     52  NH2       25.0190  -10.6310   56.6110 N.pl3  49  ARG49       0.1354
     53  N         31.7630   -8.8260   51.0610 N.3    52  SER52      -0.1202
     54  CA        31.2880  -10.1960   51.0300 C.3    52  SER52       0.2020
     55  C         31.6700  -10.9330   49.7480 C.2    52  SER52       0.2618
     56  O         31.9060  -12.1420   49.7660 O.2    52  SER52      -0.2717
     57  CB        29.7780  -10.2000   51.1970 C.3    52  SER52       0.2103
     58  OG        29.4240   -9.7550   52.4950 O.3    52  SER52      -0.2182
     59  N         31.7180  -10.2110   48.6330 N.am   53  HIS53      -0.1975
     60  CA        32.0880  -10.8170   47.3530 C.3    53  HIS53       0.1656
     61  C         33.3350  -10.1220   46.8240 C.2    53  HIS53       0.2291
     62  O         33.5730   -8.9610   47.1400 O.2    53  HIS53      -0.2864
     63  CB        30.9540  -10.6620   46.3500 C.3    53  HIS53       0.0771
     64  CG        29.6220  -11.0890   46.8740 C.ar   53  HIS53       0.0820
     65  ND1       28.8580  -10.2960   47.7020 N.ar   53  HIS53      -0.2267
     66  CD2       28.9310  -12.2410   46.7170 C.ar   53  HIS53       0.1154
     67  CE1       27.7530  -10.9410   48.0350 C.ar   53  HIS53       0.1986
     68  NE2       27.7750  -12.1240   47.4510 N.ar   53  HIS53      -0.2212
     69  N         14.9580   -6.0950   41.8160 N.3   117  HIS117     -0.1226
     70  CA        15.2920   -7.2350   42.6720 C.3   117  HIS117      0.1752
     71  C         14.5780   -7.3580   44.0130 C.2   117  HIS117      0.2596
     72  O         14.7410   -8.3570   44.7010 O.2   117  HIS117     -0.2718
     73  CB        16.7930   -7.2320   42.9190 C.3   117  HIS117      0.0759
     74  CG        17.5980   -7.3580   41.6670 C.ar  117  HIS117      0.0818
     75  ND1       17.8080   -8.5660   41.0410 N.ar  117  HIS117     -0.2268
     76  CD2       18.2420   -6.4300   40.9220 C.ar  117  HIS117      0.1154
     77  CE1       18.5540   -8.3800   39.9670 C.ar  117  HIS117      0.1986
     78  NE2       18.8300   -7.0920   39.8710 N.ar  117  HIS117     -0.2212
     79  N         13.7920   -6.3540   44.3860 N.am  118  ASP118     -0.1960
     80  CA        13.0800   -6.3750   45.6610 C.3   118  ASP118      0.1840
     81  C         11.7230   -7.0670   45.5900 C.2   118  ASP118      0.2622
     82  O         11.2000   -7.3260   44.5070 O.2   118  ASP118     -0.2715
     83  CB        12.9200   -4.9510   46.1620 C.3   118  ASP118      0.1450
     84  CG        14.2510   -4.2860   46.4090 C.2   118  ASP118      0.3671
     85  OD1       14.3160   -3.0370   46.3330 O.co2 118  ASP118     -0.2456
     86  OD2       15.2300   -5.0210   46.6860 O.co2 118  ASP118     -0.2456
     87  N         11.1510   -7.3570   46.7540 N.am  119  HIS119     -0.1973
     88  CA         9.8700   -8.0530   46.8260 C.3   119  HIS119      0.1656
     89  C          8.7370   -7.2330   47.4050 C.2   119  HIS119      0.2291
     90  O          7.8180   -6.8420   46.6960 O.2   119  HIS119     -0.2864
     91  CB        10.0170   -9.3140   47.6670 C.3   119  HIS119      0.0771
     92  CG        11.0280  -10.2760   47.1380 C.ar  119  HIS119      0.0820
     93  ND1       10.8830  -10.9150   45.9260 N.ar  119  HIS119     -0.2267
     94  CD2       12.2010  -10.7090   47.6550 C.ar  119  HIS119      0.1154
     95  CE1       11.9250  -11.7000   45.7170 C.ar  119  HIS119      0.1986
     96  NE2       12.7380  -11.5940   46.7510 N.ar  119  HIS119     -0.2212
     97  N         10.6900  -10.3040   39.8310 N.3   143  HIS143     -0.1241
     98  CA        10.6500  -11.6920   40.2890 C.3   143  HIS143      0.1621
     99  C          9.2740  -12.3460   40.1410 C.2   143  HIS143      0.2264
    100  O          9.1680  -13.5710   40.1700 O.2   143  HIS143     -0.2867
    101  CB        11.0610  -11.7930   41.7660 C.3   143  HIS143      0.0745
    102  CG        12.5300  -11.6600   41.9940 C.ar  143  HIS143      0.0817
    103  ND1       13.4430  -12.5730   41.5100 N.ar  143  HIS143     -0.2268
    104  CD2       13.2500  -10.6970   42.6150 C.ar  143  HIS143      0.1154
    105  CE1       14.6620  -12.1730   41.8190 C.ar  143  HIS143      0.1986
    106  NE2       14.5720  -11.0380   42.4890 N.ar  143  HIS143     -0.2212
    107  N         17.2690  -15.0240   39.3870 N.3   170  PRO170     -0.2116
    108  CA        18.6370  -14.5750   39.6690 C.3   170  PRO170      0.1372
    109  C         19.5330  -15.7980   39.5300 C.2   170  PRO170      0.2244
    110  O         19.6200  -16.6160   40.4350 O.2   170  PRO170     -0.2868
    111  CB        18.5310  -14.0650   41.0980 C.3   170  PRO170      0.0268
    112  CG        17.4540  -14.9570   41.6900 C.3   170  PRO170      0.0207
    113  CD        16.4300  -15.0120   40.5960 C.3   170  PRO170      0.0892
    114  N         21.7680  -16.3080   55.9970 N.3   197  GLY197     -0.1210
    115  CA        20.7770  -15.3140   55.6290 C.3   197  GLY197      0.1956
    116  C         21.0670  -13.9440   56.2280 C.2   197  GLY197      0.2611
    117  O         22.2270  -13.5740   56.4500 O.2   197  GLY197     -0.2717
    118  N         20.0010  -13.1870   56.4740 N.am  198  ARG198     -0.1979
    119  CA        20.0950  -11.8530   57.0500 C.3   198  ARG198      0.1597
    120  C         18.9940  -11.7240   58.0850 C.2   198  ARG198      0.2287
    121  O         18.1210  -12.5800   58.1770 O.2   198  ARG198     -0.2864
    122  CB        19.8570  -10.7800   55.9980 C.3   198  ARG198      0.0334
    123  CG        20.8260  -10.7330   54.8690 C.3   198  ARG198      0.0492
    124  CD        20.4860   -9.5510   53.9660 C.3   198  ARG198      0.2205
    125  NE        19.2460   -9.7250   53.2040 N.pl3 198  ARG198     -0.0865
    126  CZ        18.2070   -8.8960   53.2660 C.cat 198  ARG198      0.5346
    127  NH1       17.1210   -9.1160   52.5300 N.pl3 198  ARG198      0.1354
    128  NH2       18.2430   -7.8510   54.0820 N.pl3 198  ARG198      0.1354
    129  N         11.0230  -12.7290   56.9320 N.3   202  TRP202     -0.1227
    130  CA        10.7150  -13.7460   55.9270 C.3   202  TRP202      0.1737
    131  C         11.8790  -14.6900   55.6400 C.2   202  TRP202      0.2595
    132  O         11.7430  -15.6450   54.8670 O.2   202  TRP202     -0.2718
    133  CB        10.2090  -13.1110   54.6150 C.3   202  TRP202      0.0564
    134  CG        11.0740  -12.0250   54.0380 C.ar  202  TRP202      0.0003
    135  CD1       11.0990  -10.7100   54.4080 C.ar  202  TRP202      0.0946
    136  CD2       12.0190  -12.1560   52.9680 C.ar  202  TRP202      0.0152
    137  NE1       11.9960  -10.0130   53.6310 N.ar  202  TRP202     -0.2442
    138  CE2       12.5730  -10.8780   52.7400 C.ar  202  TRP202      0.0810
    139  CE3       12.4490  -13.2290   52.1800 C.ar  202  TRP202      0.0012
    140  CZ2       13.5320  -10.6440   51.7570 C.ar  202  TRP202      0.0191
    141  CZ3       13.3990  -12.9970   51.2040 C.ar  202  TRP202      0.0001
    142  CH2       13.9310  -11.7120   51.0000 C.ar  202  TRP202      0.0015
    143  N         13.0140  -14.4300   56.2810 N.am  203  LYS203     -0.1980
    144  CA        14.2020  -15.2530   56.1040 C.3   203  LYS203      0.1596
    145  C         14.1950  -16.4460   57.0680 C.2   203  LYS203      0.2287
    146  O         15.1880  -17.1550   57.2010 O.2   203  LYS203     -0.2864
    147  CB        15.4450  -14.4050   56.3360 C.3   203  LYS203      0.0298
    148  CG        16.4470  -14.4340   55.2010 C.3   203  LYS203      0.0038
    149  CD        15.9530  -13.7100   53.9580 C.3   203  LYS203      0.0206
    150  CE        16.9790  -13.8660   52.8360 C.3   203  LYS203      0.1093
    151  NZ        16.6710  -13.0890   51.6140 N.3   203  LYS203     -0.1314
    152  N         28.3510  -11.2080   59.9080 N.3   268  CYS268     -0.1221
    153  CA        28.1770  -11.1000   58.4680 C.3   268  CYS268      0.1808
    154  C         29.3100  -11.9520   57.9230 C.2   268  CYS268      0.2601
    155  O         30.2550  -12.2510   58.6410 O.2   268  CYS268     -0.2717
    156  CB        28.3320   -9.6450   58.0000 C.3   268  CYS268      0.0970
    157  SG        30.0250   -9.1340   57.6150 S.3   268  CYS268     -0.0800
    158  N         29.2550  -12.3390   56.6610 N.am  269  TYR269     -0.1976
    159  CA        30.3140  -13.2000   56.1800 C.3   269  TYR269      0.1639
    160  C         30.8370  -12.9040   54.8130 C.2   269  TYR269      0.2290
    161  O         30.2240  -12.1750   54.0320 O.2   269  TYR269     -0.2864
    162  CB        29.8460  -14.6590   56.2180 C.3   269  TYR269      0.0560
    163  CG        28.6470  -14.9630   55.3370 C.ar  269  TYR269     -0.0198
    164  CD1       28.8020  -15.2610   53.9810 C.ar  269  TYR269     -0.0009
    165  CD2       27.3610  -14.9720   55.8650 C.ar  269  TYR269     -0.0009
    166  CE1       27.7000  -15.5680   53.1860 C.ar  269  TYR269      0.0417
    167  CE2       26.2560  -15.2730   55.0750 C.ar  269  TYR269      0.0417
    168  CZ        26.4340  -15.5710   53.7440 C.ar  269  TYR269      0.1957
    169  OH        25.3420  -15.8990   52.9850 O.3   269  TYR269     -0.2866
    170  N         31.4680  -14.3930   51.4320 N.3   271  ASN271     -0.1240
    171  CA        30.8550  -15.4700   50.6750 C.3   271  ASN271      0.1653
    172  C         31.7160  -16.7060   50.3970 C.2   271  ASN271      0.2266
    173  O         31.2630  -17.8220   50.6250 O.2   271  ASN271     -0.2867
    174  CB        30.2980  -14.9020   49.3680 C.3   271  ASN271      0.1155
    175  CG        29.4310  -15.8880   48.6370 C.2   271  ASN271      0.2627
    176  OD1       29.9120  -16.6680   47.8240 O.2   271  ASN271     -0.2716
    177  ND2       28.1430  -15.8720   48.9370 N.am  271  ASN271     -0.0877
    178  N         32.2310  -18.6160   53.6720 N.3   274  MET274     -0.1245
    179  CA        31.0270  -19.3280   54.0650 C.3   274  MET274      0.1570
    180  C         30.8630  -20.6320   53.2800 C.2   274  MET274      0.2261
    181  O         30.6160  -21.6720   53.8770 O.2   274  MET274     -0.2867
    182  CB        29.8030  -18.4200   53.8740 C.3   274  MET274      0.0387
    183  CG        28.4610  -19.0570   54.2240 C.3   274  MET274      0.0595
    184  SD        27.8630  -20.1550   52.9230 S.3   274  MET274     -0.1393
    185  CE        27.0950  -18.9680   51.8450 C.3   274  MET274      0.0692
    186  N         11.8050  -17.7510   41.0430 N.3   298  SER298     -0.1202
    187  CA        13.0090  -17.3120   41.7190 C.3   298  SER298      0.2020
    188  C         13.4230  -17.8860   43.0510 C.2   298  SER298      0.2619
    189  O         12.8190  -17.6290   44.1070 O.2   298  SER298     -0.2717
    190  CB        13.0320  -15.7870   41.8380 C.3   298  SER298      0.2103
    191  OG        13.3890  -15.1780   40.6100 O.3   298  SER298     -0.2182
    192  N         14.4910  -18.6650   42.9870 N.am  299  LEU299     -0.1965
    193  CA        15.0850  -19.2210   44.1820 C.3   299  LEU299      0.1728
    194  C         16.1000  -18.0970   44.5080 C.2   299  LEU299      0.2616
    195  O         16.3430  -17.2240   43.6660 O.2   299  LEU299     -0.2715
    196  CB        15.7730  -20.5400   43.8200 C.3   299  LEU299      0.0311
    197  CG        15.6170  -21.7240   44.7700 C.3   299  LEU299      0.0022
    198  CD1       14.2020  -21.7800   45.3140 C.3   299  LEU299      0.0001
    199  CD2       15.9790  -23.0080   44.0380 C.3   299  LEU299      0.0001
    200  N         16.6580  -18.0840   45.7140 N.am  300  GLU300     -0.1963
    201  CA        17.6310  -17.0590   46.1050 C.3   300  GLU300      0.1733
    202  C         19.0600  -17.5930   46.0390 C.2   300  GLU300      0.2616
    203  O         19.2700  -18.8030   46.0590 O.2   300  GLU300     -0.2715
    204  CB        17.3370  -16.5780   47.5240 C.3   300  GLU300      0.0429
    205  CG        16.2100  -15.5660   47.6000 C.3   300  GLU300      0.1163
    206  CD        15.5720  -15.4890   48.9780 C.2   300  GLU300      0.3649
    207  OE1       14.5960  -16.2300   49.2250 O.co2 300  GLU300     -0.2457
    208  OE2       16.0490  -14.6970   49.8150 O.co2 300  GLU300     -0.2457
    209  N         20.0480  -16.7050   45.9620 N.am  301  TYR301     -0.1960
    210  CA        21.4320  -17.1730   45.9050 C.3   301  TYR301      0.1771
    211  C         21.8090  -18.0730   47.0740 C.2   301  TYR301      0.2620
    212  O         22.5640  -19.0380   46.8920 O.2   301  TYR301     -0.2715
    213  CB        22.4130  -15.9990   45.8120 C.3   301  TYR301      0.0574
    214  CG        22.4010  -15.3870   44.4420 C.ar  301  TYR301     -0.0198
    215  CD1       21.7970  -14.1510   44.2040 C.ar  301  TYR301     -0.0009
    216  CD2       22.9180  -16.0880   43.3620 C.ar  301  TYR301     -0.0009
    217  CE1       21.7020  -13.6330   42.9170 C.ar  301  TYR301      0.0417
    218  CE2       22.8350  -15.5880   42.0800 C.ar  301  TYR301      0.0417
    219  CZ        22.2280  -14.3650   41.8570 C.ar  301  TYR301      0.1957
    220  OH        22.1620  -13.8890   40.5720 O.3   301  TYR301     -0.2866
    221  N         21.2990  -17.7650   48.2690 N.am  302  THR302     -0.1951
    222  CA        21.5950  -18.6020   49.4260 C.3   302  THR302      0.1897
    223  C         21.0390  -20.0090   49.1850 C.2   302  THR302      0.2313
    224  O         21.6210  -20.9840   49.6530 O.2   302  THR302     -0.2863
    225  CB        21.0330  -18.0150   50.7610 C.3   302  THR302      0.1794
    226  OG1       19.8070  -17.3240   50.5210 O.3   302  THR302     -0.2208
    227  CG2       22.0330  -17.0560   51.3790 C.3   302  THR302      0.0378
    228  N         23.5830  -21.6490   46.6750 N.3   305  GLU305     -0.1245
    229  CA        24.9030  -21.9290   47.2300 C.3   305  GLU305      0.1567
    230  C         24.9120  -23.2470   48.0130 C.2   305  GLU305      0.2260
    231  O         25.8890  -24.0140   47.9440 O.2   305  GLU305     -0.2867
    232  CB        25.3560  -20.7580   48.1020 C.3   305  GLU305      0.0388
    233  CG        25.8580  -19.5650   47.2800 C.3   305  GLU305      0.1160
    234  CD        25.7540  -18.2460   48.0250 C.2   305  GLU305      0.3649
    235  OE1       26.3210  -17.2430   47.5540 O.co2 305  GLU305     -0.2457
    236  OE2       25.0900  -18.2070   49.0770 O.co2 305  GLU305     -0.2457
@<TRIPOS>BOND
     1    41    40   ar
     2    41    39   ar
     3    40    38   ar
     4    39    37   ar
     5    34    33    2
     6    38    36   ar
     7    37    36   ar
     8    36    35    1
     9   107   108    1
    10   107   113    1
    11   109   108    1
    12   109   110    2
    13    33    32    1
    14   108   111    1
    15    97    98    1
    16    78    77   ar
    17    78    76   ar
    18    77    75   ar
    19    99   100    2
    20    99    98    1
    21    98   101    1
    22   220   219    1
    23   113   112    1
    24   191   190    1
    25    35    32    1
    26    32    31    1
    27    76    74   ar
    28    75    74   ar
    29   186   187    1
    30   111   112    1
    31    25    24    2
    32   103   105   ar
    33   103   102   ar
    34    74    73    1
    35   187   190    1
    36   187   188    1
    37   101   102    1
    38    69    70    1
    39   105   106   ar
    40   219   218   ar
    41   219   217   ar
    42    31    24   am
    43   102   104   ar
    44   218   216   ar
    45    24    23    1
    46    18    17    2
    47   106   104   ar
    48    70    73    1
    49    70    71    1
    50   217   215   ar
    51   192   188   am
    52   192   193    1
    53   188   189    2
    54    20    19    1
    55   216   214   ar
    56    17    16    1
    57    30    29    1
    58    23    22    1
    59    23    26    1
    60   195   194    2
    61    29    28    1
    62   196   193    1
    63   196   197    1
    64    16    19    1
    65    16    15    1
    66    28    27    1
    67    71    79   am
    68    71    72    2
    69   199   197    1
    70    14    13    2
    71    27    26    1
    72   193   194    1
    73   215   214   ar
    74    19    21    1
    75    79    80    1
    76   214   213    1
    77    82    81    2
    78   194   200   am
    79   197   198    1
    80    13    15   am
    81    13    12    1
    82    81    80    1
    83    81    87   am
    84    80    83    1
    85   200   201    1
    86    95    93   ar
    87    95    96   ar
    88   213   210    1
    89   210   209    1
    90   210   211    1
    91    93    92   ar
    92   209   202   am
    93   202   203    2
    94   202   201    1
    95   201   204    1
    96    83    84    1
    97    85    84   ar
    98    63    64    1
    99    63    60    1
   100    12    11    1
   101    84    86   ar
   102   228   229    1
   103    90    89    2
   104    66    64   ar
   105    66    68   ar
   106    96    94   ar
   107     8     7    2
   108    87    88    1
   109    61    62    2
   110    61    60    1
   111    88    89    1
   112    88    91    1
   113    64    65   ar
   114   212   211    2
   115   211   221   am
   116    92    94   ar
   117    92    91    1
   118   229   230    1
   119   229   232    1
   120   233   234    1
   121   233   232    1
   122    60    59    1
   123    68    67   ar
   124   204   205    1
   125   235   234   ar
   126   205   206    1
   127    11     7   am
   128    65    67   ar
   129     7     6    1
   130   176   175    2
   131   231   230    2
   132   234   236   ar
   133   221   222    1
   134    59    55   am
   135   175   177   am
   136   175   174    1
   137     1     2    1
   138     5     6    1
   139     5     3   am
   140   206   207   ar
   141   206   208   ar
   142     6     9    1
   143   223   222    1
   144   223   224    2
   145     2     3    1
   146   174   171    1
   147   222   225    1
   148     3     4    2
   149    55    56    2
   150    55    54    1
   151     9    10    1
   152   172   173    2
   153   172   171    1
   154   226   225    1
   155   171   170    1
   156   225   227    1
   157   142   141   ar
   158   142   140   ar
   159    54    53    1
   160    54    57    1
   161    57    58    1
   162   141   139   ar
   163    45    44    2
   164   151   150    1
   165   140   138   ar
   166   185   184    1
   167   139   136   ar
   168    44    43    1
   169   127   126    1
   170   138   136   ar
   171   138   137   ar
   172   150   149    1
   173   184   183    1
   174   136   134   ar
   175   169   168    1
   176   166   168   ar
   177   166   164   ar
   178   125   126    2
   179   125   124    1
   180   126   128    1
   181   180   181    2
   182   180   179    1
   183   137   135   ar
   184   178   179    1
   185    46    43    1
   186    46    47    1
   187   168   167   ar
   188    43    42    1
   189   182   179    1
   190   182   183    1
   191   149   148    1
   192   124   123    1
   193   164   163   ar
   194   161   160    2
   195   134   135   ar
   196   134   133    1
   197   133   130    1
   198    47    48    1
   199    48    49    1
   200   160   159    1
   201   132   131    2
   202   123   122    1
   203   167   165   ar
   204   148   147    1
   205   163   165   ar
   206   163   162    1
   207    49    50    2
   208   115   114    1
   209   115   116    1
   210   131   130    1
   211   131   143   am
   212   130   129    1
   213   122   119    1
   214   144   143    1
   215   144   147    1
   216   144   145    1
   217    50    51    1
   218    50    52    1
   219   159   162    1
   220   159   158    1
   221   116   117    2
   222   116   118   am
   223   118   119    1
   224   158   154   am
   225   119   120    1
   226   145   146    2
   227   157   156    1
   228   154   153    1
   229   154   155    2
   230   156   153    1
   231   120   121    2
   232   153   152    1
