@<TRIPOS>MOLECULE
tmp/1y6oA00.pdb
 161 159 0 0 0
SMALL
GASTEIGER

@<TRIPOS>ATOM
      1  N         -3.9760   -6.3140   31.1400 N.3     2  LEU2       -0.1245
      2  CA        -2.7340   -6.6520   31.8320 C.3     2  LEU2        0.1561
      3  C         -1.5070   -6.7750   30.9270 C.2     2  LEU2        0.2260
      4  O         -0.4250   -6.3130   31.2840 O.2     2  LEU2       -0.2867
      5  CB        -2.9190   -7.9470   32.6340 C.3     2  LEU2        0.0270
      6  CG        -1.7460   -8.3890   33.5120 C.3     2  LEU2        0.0019
      7  CD1       -1.3590   -7.2870   34.4810 C.3     2  LEU2        0.0001
      8  CD2       -2.1340   -9.6460   34.2690 C.3     2  LEU2        0.0001
      9  N         -0.3310   -3.3270   30.1860 N.3     5  PHE5       -0.1227
     10  CA         0.3300   -2.6460   31.2940 C.3     5  PHE5        0.1736
     11  C          1.7840   -3.1050   31.3170 C.2     5  PHE5        0.2595
     12  O          2.6900   -2.2960   31.4990 O.2     5  PHE5       -0.2718
     13  CB        -0.3740   -2.9670   32.6240 C.3     5  PHE5        0.0547
     14  CG         0.1310   -2.1590   33.8020 C.ar    5  PHE5       -0.0202
     15  CD1        0.7770   -0.9400   33.6110 C.ar    5  PHE5       -0.0042
     16  CD2       -0.0850   -2.6000   35.1100 C.ar    5  PHE5       -0.0042
     17  CE1        1.1990   -0.1700   34.7000 C.ar    5  PHE5       -0.0003
     18  CE2        0.3320   -1.8360   36.2060 C.ar    5  PHE5       -0.0003
     19  CZ         0.9750   -0.6190   35.9980 C.ar    5  PHE5       -0.0000
     20  N          2.0040   -4.4030   31.1240 N.am    6  ARG6       -0.1980
     21  CA         3.3570   -4.9440   31.1070 C.3     6  ARG6        0.1597
     22  C          4.1410   -4.2820   29.9740 C.2     6  ARG6        0.2287
     23  O          5.3220   -3.9610   30.1160 O.2     6  ARG6       -0.2864
     24  CB         3.3370   -6.4630   30.8930 C.3     6  ARG6        0.0334
     25  CG         4.7390   -7.0610   30.7380 C.3     6  ARG6        0.0492
     26  CD         4.7340   -8.5860   30.7580 C.3     6  ARG6        0.2205
     27  NE         6.0880   -9.1280   30.6390 N.pl3   6  ARG6       -0.0865
     28  CZ         6.7860   -9.1550   29.5060 C.cat   6  ARG6        0.5346
     29  NH1        8.0140   -9.6590   29.4920 N.pl3   6  ARG6        0.1354
     30  NH2        6.2510   -8.6900   28.3810 N.pl3   6  ARG6        0.1354
     31  N          5.0650   -0.6330   30.8230 N.3     9  ILE9       -0.1245
     32  CA         6.2050   -0.6100   31.7300 C.3     9  ILE9        0.1561
     33  C          7.5020   -0.8160   30.9570 C.2     9  ILE9        0.2260
     34  O          8.5050   -0.1580   31.2280 O.2     9  ILE9       -0.2867
     35  CB         6.1110   -1.7240   32.8050 C.3     9  ILE9        0.0252
     36  CG1        4.8120   -1.5890   33.6060 C.3     9  ILE9        0.0019
     37  CG2        7.3070   -1.6450   33.7380 C.3     9  ILE9        0.0019
     38  CD1        4.6260   -0.2450   34.2380 C.3     9  ILE9        0.0001
     39  N          8.6260   -6.6410   34.0540 N.3    18  PRO18      -0.2102
     40  CA         7.4880   -6.2500   34.8840 C.3    18  PRO18       0.1504
     41  C          6.9550   -7.2290   35.9220 C.2    18  PRO18       0.2575
     42  O          6.7950   -6.8590   37.0800 O.2    18  PRO18      -0.2718
     43  CB         6.4450   -5.8410   33.8500 C.3    18  PRO18       0.0282
     44  CG         7.2780   -5.2390   32.7850 C.3    18  PRO18       0.0208
     45  CD         8.3800   -6.2590   32.6520 C.3    18  PRO18       0.0893
     46  N          6.6630   -8.4630   35.5240 N.am   19  LEU19      -0.1980
     47  CA         6.1430   -9.4320   36.4800 C.3    19  LEU19       0.1596
     48  C          7.1910   -9.7670   37.5330 C.2    19  LEU19       0.2287
     49  O          6.8780   -9.8800   38.7140 O.2    19  LEU19      -0.2864
     50  CB         5.6870  -10.7070   35.7640 C.3    19  LEU19       0.0297
     51  CG         4.3870  -10.6030   34.9580 C.3    19  LEU19       0.0022
     52  CD1        4.0950  -11.9140   34.2510 C.3    19  LEU19       0.0001
     53  CD2        3.2380  -10.2540   35.9050 C.3    19  LEU19       0.0001
     54  N          8.2090   -5.7880   39.3170 N.3    22  PHE22      -0.1227
     55  CA         7.2170   -5.0330   40.0640 C.3    22  PHE22       0.1736
     56  C          6.0980   -5.8060   40.7490 C.2    22  PHE22       0.2595
     57  O          5.6080   -5.3720   41.7900 O.2    22  PHE22      -0.2718
     58  CB         6.6520   -3.9440   39.1480 C.3    22  PHE22       0.0547
     59  CG         7.7230   -3.0810   38.5310 C.ar   22  PHE22      -0.0202
     60  CD1        8.4580   -2.1990   39.3170 C.ar   22  PHE22      -0.0042
     61  CD2        8.0390   -3.1940   37.1830 C.ar   22  PHE22      -0.0042
     62  CE1        9.4950   -1.4460   38.7710 C.ar   22  PHE22      -0.0003
     63  CE2        9.0730   -2.4460   36.6240 C.ar   22  PHE22      -0.0003
     64  CZ         9.8030   -1.5720   37.4190 C.ar   22  PHE22      -0.0000
     65  N          5.6790   -6.9350   40.1910 N.am   23  ASN23      -0.1974
     66  CA         4.6300   -7.7020   40.8530 C.3    23  ASN23       0.1688
     67  C          5.1960   -8.1910   42.1820 C.2    23  ASN23       0.2292
     68  O          6.3670   -8.5530   42.2730 O.2    23  ASN23      -0.2864
     69  CB         4.1970   -8.9050   40.0180 C.3    23  ASN23       0.1181
     70  CG         3.0760   -9.6960   40.6820 C.2    23  ASN23       0.2629
     71  OD1        3.1370  -10.9260   40.7900 O.2    23  ASN23      -0.2716
     72  ND2        2.0430   -8.9900   41.1260 N.am   23  ASN23      -0.0877
     73  N          1.9500   -2.5580   48.0420 N.3    28  TYR28      -0.1227
     74  CA         0.9100   -2.3480   47.0450 C.3    28  TYR28       0.1736
     75  C          1.1620   -2.8670   45.6340 C.2    28  TYR28       0.2596
     76  O          0.2180   -2.9990   44.8550 O.2    28  TYR28      -0.2718
     77  CB         0.5540   -0.8550   46.9820 C.3    28  TYR28       0.0548
     78  CG        -0.1750   -0.3820   48.2150 C.ar   28  TYR28      -0.0200
     79  CD1        0.5240   -0.0660   49.3860 C.ar   28  TYR28      -0.0009
     80  CD2       -1.5720   -0.3390   48.2460 C.ar   28  TYR28      -0.0009
     81  CE1       -0.1490    0.2710   50.5570 C.ar   28  TYR28       0.0417
     82  CE2       -2.2570   -0.0060   49.4140 C.ar   28  TYR28       0.0417
     83  CZ        -1.5420    0.2930   50.5660 C.ar   28  TYR28       0.1957
     84  OH        -2.2150    0.5670   51.7340 O.3    28  TYR28      -0.2866
     85  N          2.4120   -3.1480   45.2860 N.am   29  CYS29      -0.1956
     86  CA         2.6840   -3.6450   43.9400 C.3    29  CYS29       0.1843
     87  C          2.3140   -5.1170   43.8560 C.2    29  CYS29       0.2626
     88  O          3.0820   -5.9870   44.2660 O.2    29  CYS29      -0.2714
     89  CB         4.1550   -3.4510   43.5710 C.3    29  CYS29       0.0997
     90  SG         4.7430   -1.7310   43.6660 S.3    29  CYS29      -0.0797
     91  N          1.1230   -5.3780   43.3300 N.am   30  GLY30      -0.1940
     92  CA         0.6250   -6.7360   43.1990 C.3    30  GLY30       0.2014
     93  C         -0.8620   -6.7270   43.4940 C.2    30  GLY30       0.2638
     94  O         -1.4240   -5.6670   43.7620 O.2    30  GLY30      -0.2714
     95  N         -1.5070   -7.8910   43.4430 N.am   31  LEU31      -0.1977
     96  CA        -2.9380   -7.9720   43.7300 C.3    31  LEU31       0.1596
     97  C         -3.2160   -7.4790   45.1440 C.2    31  LEU31       0.2287
     98  O         -2.5950   -7.9340   46.1020 O.2    31  LEU31      -0.2864
     99  CB        -3.4380   -9.4150   43.5980 C.3    31  LEU31       0.0297
    100  CG        -4.1670   -9.7950   42.3090 C.3    31  LEU31       0.0022
    101  CD1       -4.4610  -11.2910   42.3140 C.3    31  LEU31       0.0001
    102  CD2       -5.4550   -8.9910   42.1950 C.3    31  LEU31       0.0001
    103  N          2.4650    2.2870   43.1310 N.3    45  CYS45      -0.1235
    104  CA         1.5050    1.1920   43.0550 C.3    45  CYS45       0.1677
    105  C          0.2380    1.4730   43.8590 C.2    45  CYS45       0.2270
    106  O         -0.8560    1.0720   43.4560 O.2    45  CYS45      -0.2867
    107  CB         2.1540   -0.1180   43.5200 C.3    45  CYS45       0.0956
    108  SG         3.5080   -0.6920   42.4340 S.3    45  CYS45      -0.0801
    109  N         -1.7720    3.6440   41.6850 N.3    48  HIS48      -0.1226
    110  CA        -2.3760    2.8990   40.5870 C.3    48  HIS48       0.1752
    111  C         -3.5810    2.0980   41.0950 C.2    48  HIS48       0.2596
    112  O         -4.5950    1.9900   40.4070 O.2    48  HIS48      -0.2718
    113  CB        -1.3380    1.9760   39.9530 C.3    48  HIS48       0.0759
    114  CG        -1.8630    1.1770   38.8020 C.ar   48  HIS48       0.0818
    115  ND1       -2.4850   -0.0420   38.9650 N.ar   48  HIS48      -0.2268
    116  CD2       -1.8590    1.4230   37.4710 C.ar   48  HIS48       0.1154
    117  CE1       -2.8390   -0.5140   37.7830 C.ar   48  HIS48       0.1986
    118  NE2       -2.4710    0.3560   36.8600 N.ar   48  HIS48      -0.2212
    119  N         -3.4630    1.5370   42.2970 N.am   49  ASP49      -0.1974
    120  CA        -4.5560    0.7800   42.9070 C.3    49  ASP49       0.1709
    121  C         -5.7730    1.6990   43.0380 C.2    49  ASP49       0.2293
    122  O         -6.8900    1.3370   42.6660 O.2    49  ASP49      -0.2864
    123  CB        -4.1440    0.2800   44.2970 C.3    49  ASP49       0.1436
    124  CG        -3.2200   -0.9270   44.2410 C.2    49  ASP49       0.3671
    125  OD1       -2.7310   -1.2710   43.1430 O.co2  49  ASP49      -0.2456
    126  OD2       -2.9760   -1.5340   45.3060 O.co2  49  ASP49      -0.2456
    127  N         -7.4540    2.4280   39.7780 N.3    52  TYR52      -0.1241
    128  CA        -8.3270    1.3380   39.3390 C.3    52  TYR52       0.1605
    129  C         -9.6190    1.3260   40.1450 C.2    52  TYR52       0.2264
    130  O        -10.6740    0.9560   39.6330 O.2    52  TYR52      -0.2867
    131  CB        -7.6040   -0.0070   39.4540 C.3    52  TYR52       0.0534
    132  CG        -6.9060   -0.4080   38.1660 C.ar   52  TYR52      -0.0201
    133  CD1       -6.4560    0.5600   37.2690 C.ar   52  TYR52      -0.0009
    134  CD2       -6.6980   -1.7490   37.8450 C.ar   52  TYR52      -0.0009
    135  CE1       -5.8190    0.2090   36.0820 C.ar   52  TYR52       0.0417
    136  CE2       -6.0540   -2.1150   36.6550 C.ar   52  TYR52       0.0417
    137  CZ        -5.6210   -1.1260   35.7810 C.ar   52  TYR52       0.1957
    138  OH        -4.9970   -1.4540   34.6000 O.3    52  TYR52      -0.2866
    139  N         -8.2370   -5.0220   34.1910 N.3    69  TYR69      -0.1241
    140  CA        -7.1970   -5.8270   33.5620 C.3    69  TYR69       0.1605
    141  C         -7.6930   -6.6990   32.4230 C.2    69  TYR69       0.2264
    142  O         -6.9170   -7.4290   31.8080 O.2    69  TYR69      -0.2867
    143  CB        -6.4780   -6.6830   34.6010 C.3    69  TYR69       0.0534
    144  CG        -5.4360   -5.9050   35.3630 C.ar   69  TYR69      -0.0201
    145  CD1       -4.5150   -5.1040   34.6870 C.ar   69  TYR69      -0.0009
    146  CD2       -5.3680   -5.9610   36.7530 C.ar   69  TYR69      -0.0009
    147  CE1       -3.5580   -4.3770   35.3710 C.ar   69  TYR69       0.0417
    148  CE2       -4.4110   -5.2370   37.4520 C.ar   69  TYR69       0.0417
    149  CZ        -3.5100   -4.4470   36.7540 C.ar   69  TYR69       0.1957
    150  OH        -2.5630   -3.7190   37.4290 O.3    69  TYR69      -0.2866
    151  N          7.0180    4.4900   37.9240 N.3   106  PHE106     -0.1241
    152  CA         7.9660    3.3900   38.1080 C.3   106  PHE106      0.1605
    153  C          9.3580    3.7360   37.5800 C.2   106  PHE106      0.2264
    154  O         10.3580    3.5040   38.2460 O.2   106  PHE106     -0.2867
    155  CB         7.4900    2.1280   37.3740 C.3   106  PHE106      0.0534
    156  CG         6.3250    1.4260   38.0160 C.ar  106  PHE106     -0.0203
    157  CD1        5.6470    1.9800   39.0940 C.ar  106  PHE106     -0.0042
    158  CD2        5.8840    0.2080   37.5040 C.ar  106  PHE106     -0.0042
    159  CE1        4.5430    1.3360   39.6540 C.ar  106  PHE106     -0.0003
    160  CE2        4.7800   -0.4480   38.0550 C.ar  106  PHE106     -0.0003
    161  CZ         4.1080    0.1220   39.1330 C.ar  106  PHE106     -0.0000
@<TRIPOS>BOND
     1    30    28    1
     2    29    28    1
     3    28    27    2
     4    22    23    2
     5    22    21    1
     6     9    10    1
     7    27    26    1
     8    25    26    1
     9    25    24    1
    10    31    32    1
    11    24    21    1
    12     3     4    2
    13     3     2    1
    14    33    34    2
    15    33    32    1
    16    21    20    1
    17    20    11   am
    18     1     2    1
    19    10    11    1
    20    10    13    1
    21    11    12    2
    22    32    35    1
    23   142   141    2
    24     2     5    1
    25   141   140    1
    26    13    14    1
    27     5     6    1
    28    45    44    1
    29    45    39    1
    30    44    43    1
    31    35    36    1
    32    35    37    1
    33     6     8    1
    34     6     7    1
    35   140   139    1
    36   140   143    1
    37    36    38    1
    38    15    14   ar
    39    15    17   ar
    40    14    16   ar
    41    43    40    1
    42    39    40    1
    43    52    51    1
    44   138   137    1
    45   143   144    1
    46   145   144   ar
    47   145   147   ar
    48    17    19   ar
    49    40    41    1
    50    51    50    1
    51    51    53    1
    52    16    18   ar
    53   144   146   ar
    54   147   149   ar
    55    46    41   am
    56    46    47    1
    57    50    47    1
    58   137   135   ar
    59   137   136   ar
    60    41    42    2
    61    19    18   ar
    62   135   133   ar
    63    47    48    1
    64    63    61   ar
    65    63    64   ar
    66   136   134   ar
    67   146   148   ar
    68   149   150    1
    69   149   148   ar
    70   118   116   ar
    71   118   117   ar
    72    61    59   ar
    73   133   132   ar
    74   155   156    1
    75   155   152    1
    76    64    62   ar
    77   116   114   ar
    78   158   156   ar
    79   158   160   ar
    80    48    49    2
    81   153   152    1
    82   153   154    2
    83   117   115   ar
    84   134   132   ar
    85   151   152    1
    86   156   157   ar
    87   160   161   ar
    88   132   131    1
    89    59    58    1
    90    59    60   ar
    91    62    60   ar
    92   114   115   ar
    93   114   113    1
    94   157   159   ar
    95   161   159   ar
    96    58    55    1
    97    54    55    1
    98   128   131    1
    99   128   127    1
   100   128   129    1
   101   130   129    2
   102   113   110    1
   103    69    70    1
   104    69    66    1
   105    55    56    1
   106    65    56   am
   107    65    66    1
   108   112   111    2
   109   110   111    1
   110   110   109    1
   111    70    71    2
   112    70    72   am
   113    56    57    2
   114    66    67    1
   115   111   119   am
   116    67    68    2
   117   102   100    1
   118   119   120    1
   119   100   101    1
   120   100    99    1
   121   108   107    1
   122   108    90    1
   123   122   121    2
   124   120   121    1
   125   120   123    1
   126   104   103    1
   127   104   107    1
   128   104   105    1
   129   125   124   ar
   130    92    91    1
   131    92    93    1
   132    91    87   am
   133    95    93   am
   134    95    96    1
   135   106   105    2
   136    93    94    2
   137    89    90    1
   138    89    86    1
   139    99    96    1
   140    96    97    1
   141    87    86    1
   142    87    88    2
   143    86    85    1
   144   124   123    1
   145   124   126   ar
   146    76    75    2
   147    97    98    2
   148    85    75   am
   149    75    74    1
   150    77    74    1
   151    77    78    1
   152    74    73    1
   153    78    80   ar
   154    78    79   ar
   155    80    82   ar
   156    79    81   ar
   157    82    83   ar
   158    81    83   ar
   159    83    84    1
