@<TRIPOS>MOLECULE
tmp/1y6oB01.pdb
 161 159 0 0 0
SMALL
GASTEIGER

@<TRIPOS>ATOM
      1  N          3.9580  -15.6730   39.8160 N.3     2  LEU2       -0.1245
      2  CA         3.3890  -15.3040   38.5270 C.3     2  LEU2        0.1561
      3  C          4.4040  -15.2120   37.3890 C.2     2  LEU2        0.2260
      4  O          4.1780  -15.7420   36.3070 O.2     2  LEU2       -0.2867
      5  CB         2.6380  -13.9750   38.6650 C.3     2  LEU2        0.0270
      6  CG         1.7270  -13.5680   37.5140 C.3     2  LEU2        0.0019
      7  CD1        0.7670  -14.6970   37.1810 C.3     2  LEU2        0.0001
      8  CD2        0.9600  -12.3190   37.9120 C.3     2  LEU2        0.0001
      9  N          5.2630  -18.6460   36.2380 N.3     5  PHE5       -0.1227
     10  CA         4.2060  -19.3360   35.5000 C.3     5  PHE5        0.1736
     11  C          4.2990  -18.8650   34.0520 C.2     5  PHE5        0.2595
     12  O          4.1680  -19.6610   33.1250 O.2     5  PHE5       -0.2718
     13  CB         2.8300  -19.0060   36.0990 C.3     5  PHE5        0.0547
     14  CG         1.6750  -19.7640   35.4720 C.ar    5  PHE5       -0.0202
     15  CD1        1.8650  -21.0100   34.8860 C.ar    5  PHE5       -0.0042
     16  CD2        0.3780  -19.2470   35.5290 C.ar    5  PHE5       -0.0042
     17  CE1        0.7770  -21.7410   34.3650 C.ar    5  PHE5       -0.0003
     18  CE2       -0.7110  -19.9680   35.0130 C.ar    5  PHE5       -0.0003
     19  CZ        -0.5040  -21.2170   34.4320 C.ar    5  PHE5       -0.0000
     20  N          4.5320  -17.5680   33.8600 N.am    6  ARG6       -0.1980
     21  CA         4.6650  -17.0150   32.5170 C.3     6  ARG6        0.1597
     22  C          5.8560  -17.6820   31.8320 C.2     6  ARG6        0.2287
     23  O          5.8170  -17.9920   30.6400 O.2     6  ARG6       -0.2864
     24  CB         4.8950  -15.5030   32.5680 C.3     6  ARG6        0.0334
     25  CG         5.2070  -14.8970   31.2010 C.3     6  ARG6        0.0492
     26  CD         5.1560  -13.3700   31.2190 C.3     6  ARG6        0.2205
     27  NE         5.3210  -12.8120   29.8760 N.pl3   6  ARG6       -0.0865
     28  CZ         6.4600  -12.8420   29.1900 C.cat   6  ARG6        0.5346
     29  NH1        6.5210  -12.3220   27.9680 N.pl3   6  ARG6        0.1354
     30  NH2        7.5480  -13.3720   29.7340 N.pl3   6  ARG6        0.1354
     31  N          5.1700  -21.3670   30.8620 N.3     9  ILE9       -0.1245
     32  CA         4.3370  -21.3820   29.6690 C.3     9  ILE9        0.1561
     33  C          5.1440  -21.1620   28.4000 C.2     9  ILE9        0.2260
     34  O          4.8940  -21.8140   27.3860 O.2     9  ILE9       -0.2867
     35  CB         3.2340  -20.3120   29.7440 C.3     9  ILE9        0.0252
     36  CG1        2.2550  -20.6640   30.8640 C.3     9  ILE9        0.0019
     37  CG2        2.4980  -20.2280   28.4110 C.3     9  ILE9        0.0019
     38  CD1        1.1640  -19.6450   31.0480 C.3     9  ILE9        0.0001
     39  N          2.1730  -15.2860   26.9860 N.3    18  PRO18      -0.2102
     40  CA         1.2190  -15.6430   28.0370 C.3    18  PRO18       0.1504
     41  C          0.1330  -14.6520   28.4450 C.2    18  PRO18       0.2575
     42  O         -1.0470  -14.9810   28.3780 O.2    18  PRO18      -0.2718
     43  CB         2.1280  -16.0530   29.1880 C.3    18  PRO18       0.0282
     44  CG         3.2340  -16.7360   28.4710 C.3    18  PRO18       0.0208
     45  CD         3.5230  -15.7610   27.3440 C.3    18  PRO18       0.0893
     46  N          0.5080  -13.4510   28.8720 N.am   19  LEU19      -0.1980
     47  CA        -0.4980  -12.4760   29.2810 C.3    19  LEU19       0.1596
     48  C         -1.4820  -12.1780   28.1530 C.2    19  LEU19       0.2287
     49  O         -2.6880  -12.1350   28.3710 O.2    19  LEU19      -0.2864
     50  CB         0.1680  -11.1800   29.7450 C.3    19  LEU19       0.0297
     51  CG         0.9170  -11.2450   31.0820 C.3    19  LEU19       0.0022
     52  CD1        1.6080   -9.9260   31.3550 C.3    19  LEU19       0.0001
     53  CD2       -0.0730  -11.5570   32.2000 C.3    19  LEU19       0.0001
     54  N         -3.0750  -16.1070   27.0390 N.3    22  PHE22      -0.1227
     55  CA        -3.8550  -16.8830   27.9970 C.3    22  PHE22       0.1736
     56  C         -4.5890  -16.1460   29.1030 C.2    22  PHE22       0.2595
     57  O         -5.4560  -16.7250   29.7560 O.2    22  PHE22      -0.2718
     58  CB        -2.9670  -17.9680   28.5980 C.3    22  PHE22       0.0547
     59  CG        -2.3670  -18.8740   27.5690 C.ar   22  PHE22      -0.0202
     60  CD1       -3.1740  -19.7250   26.8240 C.ar   22  PHE22      -0.0042
     61  CD2       -1.0030  -18.8500   27.3140 C.ar   22  PHE22      -0.0042
     62  CE1       -2.6330  -20.5410   25.8360 C.ar   22  PHE22      -0.0003
     63  CE2       -0.4510  -19.6610   26.3300 C.ar   22  PHE22      -0.0003
     64  CZ        -1.2700  -20.5080   25.5890 C.ar   22  PHE22      -0.0000
     65  N         -4.2470  -14.8880   29.3430 N.am   23  ASN23      -0.1974
     66  CA        -4.9710  -14.1440   30.3610 C.3    23  ASN23       0.1688
     67  C         -6.2620  -13.7110   29.6790 C.2    23  ASN23       0.2292
     68  O         -6.2690  -13.3910   28.4900 O.2    23  ASN23      -0.2864
     69  CB        -4.1940  -12.9080   30.8160 C.3    23  ASN23       0.1181
     70  CG        -4.8700  -12.1910   31.9770 C.2    23  ASN23       0.2629
     71  OD1       -4.8870  -10.9610   32.0390 O.2    23  ASN23      -0.2716
     72  ND2       -5.4240  -12.9610   32.9060 N.am   23  ASN23      -0.0877
     73  N        -12.3480  -19.4490   32.4450 N.3    28  TYR28      -0.1227
     74  CA       -11.4490  -19.6470   33.5740 C.3    28  TYR28       0.1736
     75  C        -10.0310  -19.0950   33.4760 C.2    28  TYR28       0.2596
     76  O         -9.3800  -18.8950   34.4990 O.2    28  TYR28      -0.2718
     77  CB       -11.3860  -21.1380   33.9230 C.3    28  TYR28       0.0548
     78  CG       -12.6740  -21.6310   34.5280 C.ar   28  TYR28      -0.0200
     79  CD1      -13.7640  -21.9760   33.7210 C.ar   28  TYR28      -0.0009
     80  CD2      -12.8440  -21.6530   35.9130 C.ar   28  TYR28      -0.0009
     81  CE1      -14.9940  -22.3210   34.2800 C.ar   28  TYR28       0.0417
     82  CE2      -14.0650  -21.9930   36.4790 C.ar   28  TYR28       0.0417
     83  CZ       -15.1370  -22.3230   35.6640 C.ar   28  TYR28       0.1957
     84  OH       -16.3490  -22.6360   36.2370 O.3    28  TYR28      -0.2866
     85  N         -9.5440  -18.8600   32.2660 N.am   29  CYS29      -0.1956
     86  CA        -8.1930  -18.3360   32.1180 C.3    29  CYS29       0.1843
     87  C         -8.1760  -16.8570   32.5000 C.2    29  CYS29       0.2626
     88  O         -8.5800  -15.9960   31.7230 O.2    29  CYS29      -0.2714
     89  CB        -7.6980  -18.5330   30.6820 C.3    29  CYS29       0.0997
     90  SG        -7.7920  -20.2580   30.0890 S.3    29  CYS29      -0.0797
     91  N         -7.7140  -16.5860   33.7170 N.am   30  GLY30      -0.1940
     92  CA        -7.6570  -15.2290   34.2330 C.3    30  GLY30       0.2014
     93  C         -8.0010  -15.2800   35.7100 C.2    30  GLY30       0.2638
     94  O         -8.2500  -16.3580   36.2430 O.2    30  GLY30      -0.2714
     95  N         -8.0140  -14.1350   36.3830 N.am   31  LEU31      -0.1977
     96  CA        -8.3490  -14.1180   37.8000 C.3    31  LEU31       0.1596
     97  C         -9.7910  -14.5780   37.9720 C.2    31  LEU31       0.2287
     98  O        -10.6880  -14.1020   37.2790 O.2    31  LEU31      -0.2864
     99  CB        -8.1800  -12.7090   38.3780 C.3    31  LEU31       0.0297
    100  CG        -7.0730  -12.5560   39.4240 C.3    31  LEU31       0.0022
    101  CD1       -6.9730  -11.0990   39.8680 C.3    31  LEU31       0.0001
    102  CD2       -7.3730  -13.4590   40.6080 C.3    31  LEU31       0.0001
    103  N         -7.4500  -24.2630   32.3790 N.3    45  CYS45      -0.1235
    104  CA        -7.4310  -23.1740   33.3540 C.3    45  CYS45       0.1677
    105  C         -8.3120  -23.4490   34.5630 C.2    45  CYS45       0.2270
    106  O         -7.9670  -23.0730   35.6830 O.2    45  CYS45      -0.2867
    107  CB        -7.8450  -21.8580   32.6920 C.3    45  CYS45       0.0956
    108  SG        -6.6710  -21.3170   31.4100 S.3    45  CYS45      -0.0801
    109  N         -6.3300  -25.5850   36.7210 N.3    48  HIS48      -0.1226
    110  CA        -5.2840  -24.8390   37.4110 C.3    48  HIS48       0.1752
    111  C         -5.8850  -24.0710   38.5920 C.2    48  HIS48       0.2596
    112  O         -5.2740  -23.9920   39.6580 O.2    48  HIS48      -0.2718
    113  CB        -4.5810  -23.8860   36.4360 C.3    48  HIS48       0.0759
    114  CG        -3.4690  -23.0930   37.0560 C.ar   48  HIS48       0.0818
    115  ND1       -3.6670  -21.8560   37.6320 N.ar   48  HIS48      -0.2268
    116  CD2       -2.1510  -23.3680   37.2030 C.ar   48  HIS48       0.1154
    117  CE1       -2.5190  -21.4020   38.1040 C.ar   48  HIS48       0.1986
    118  NE2       -1.5830  -22.3010   37.8570 N.ar   48  HIS48      -0.2212
    119  N         -7.0830  -23.5190   38.4010 N.am   49  ASP49      -0.1974
    120  CA        -7.7770  -22.7770   39.4540 C.3    49  ASP49       0.1709
    121  C         -8.0350  -23.6980   40.6470 C.2    49  ASP49       0.2293
    122  O         -7.8320  -23.3140   41.8030 O.2    49  ASP49      -0.2864
    123  CB        -9.1210  -22.2360   38.9460 C.3    49  ASP49       0.1436
    124  CG        -8.9690  -21.0510   37.9970 C.2    49  ASP49       0.3671
    125  OD1       -7.8260  -20.6810   37.6540 O.co2  49  ASP49      -0.2456
    126  OD2      -10.0080  -20.4880   37.5880 O.co2  49  ASP49      -0.2456
    127  N         -4.8400  -24.4300   42.5430 N.3    52  TYR52      -0.1241
    128  CA        -4.4540  -23.3320   43.4310 C.3    52  TYR52       0.1605
    129  C         -5.3350  -23.2870   44.6770 C.2    52  TYR52       0.2264
    130  O         -4.8790  -22.9140   45.7570 O.2    52  TYR52      -0.2867
    131  CB        -4.5190  -22.0000   42.6730 C.3    52  TYR52       0.0534
    132  CG        -3.1940  -21.5930   42.0510 C.ar   52  TYR52      -0.0201
    133  CD1       -2.2690  -22.5550   41.6310 C.ar   52  TYR52      -0.0009
    134  CD2       -2.8560  -20.2500   41.9050 C.ar   52  TYR52      -0.0009
    135  CE1       -1.0360  -22.1860   41.0880 C.ar   52  TYR52       0.0417
    136  CE2       -1.6240  -19.8690   41.3590 C.ar   52  TYR52       0.0417
    137  CZ        -0.7200  -20.8390   40.9560 C.ar   52  TYR52       0.1957
    138  OH         0.5020  -20.4640   40.4300 O.3    52  TYR52      -0.2866
    139  N          0.5980  -16.9660   43.8030 N.3    69  TYR69      -0.1241
    140  CA         1.3040  -16.2060   42.7790 C.3    69  TYR69       0.1605
    141  C          2.4550  -15.3610   43.2840 C.2    69  TYR69       0.2264
    142  O          3.1920  -14.7770   42.4930 O.2    69  TYR69      -0.2867
    143  CB         0.3300  -15.3350   41.9890 C.3    69  TYR69       0.0534
    144  CG        -0.3980  -16.1040   40.9130 C.ar   69  TYR69      -0.0201
    145  CD1        0.3100  -16.8670   39.9810 C.ar   69  TYR69      -0.0009
    146  CD2       -1.7890  -16.0840   40.8310 C.ar   69  TYR69      -0.0009
    147  CE1       -0.3500  -17.5920   38.9970 C.ar   69  TYR69       0.0417
    148  CE2       -2.4610  -16.8050   39.8480 C.ar   69  TYR69       0.0417
    149  CZ        -1.7360  -17.5570   38.9360 C.ar   69  TYR69       0.1957
    150  OH        -2.3920  -18.2690   37.9620 O.3    69  TYR69      -0.2866
    151  N         -1.8520  -26.4820   28.2810 N.3   106  PHE106     -0.1241
    152  CA        -1.9700  -25.3710   27.3320 C.3   106  PHE106      0.1605
    153  C         -1.3190  -25.7020   25.9900 C.2   106  PHE106      0.2264
    154  O         -1.8930  -25.4580   24.9350 O.2   106  PHE106     -0.2867
    155  CB        -1.2790  -24.1080   27.8740 C.3   106  PHE106      0.0534
    156  CG        -2.0190  -23.4080   28.9830 C.ar  106  PHE106     -0.0203
    157  CD1       -3.0670  -24.0230   29.6610 C.ar  106  PHE106     -0.0042
    158  CD2       -1.6300  -22.1270   29.3750 C.ar  106  PHE106     -0.0042
    159  CE1       -3.7150  -23.3750   30.7140 C.ar  106  PHE106     -0.0003
    160  CE2       -2.2730  -21.4730   30.4260 C.ar  106  PHE106     -0.0003
    161  CZ        -3.3180  -22.1030   31.0960 C.ar  106  PHE106     -0.0000
@<TRIPOS>BOND
     1   154   153    2
     2    64    62   ar
     3    64    63   ar
     4    62    60   ar
     5   153   152    1
     6    63    61   ar
     7    60    59   ar
     8    39    45    1
     9    39    40    1
    10    54    55    1
    11    61    59   ar
    12   152   155    1
    13   152   151    1
    14    45    44    1
    15    34    33    2
    16    59    58    1
    17   155   156    1
    18    29    28    1
    19    55    58    1
    20    55    56    1
    21    40    41    1
    22    40    43    1
    23    48    49    2
    24    48    47    1
    25    42    41    2
    26    33    32    1
    27    37    35    1
    28    41    46   am
    29    44    43    1
    30    68    67    2
    31    46    47    1
    32   156   158   ar
    33   156   157   ar
    34    56    65   am
    35    56    57    2
    36    28    30    1
    37    28    27    2
    38    47    50    1
    39    65    66    1
    40   158   160   ar
    41   157   159   ar
    42    32    35    1
    43    32    31    1
    44    67    66    1
    45    35    36    1
    46    50    51    1
    47    27    26    1
    48    90    89    1
    49    90   108    1
    50    66    69    1
    51   160   161   ar
    52    23    22    2
    53    89    86    1
    54   159   161   ar
    55    69    70    1
    56    36    38    1
    57    51    52    1
    58    51    53    1
    59    25    26    1
    60    25    24    1
    61   108   107    1
    62    88    87    2
    63    22    21    1
    64    70    71    2
    65    70    72   am
    66    86    85    1
    67    86    87    1
    68    85    75   am
    69   103   104    1
    70    73    74    1
    71    87    91   am
    72    21    24    1
    73    21    20    1
    74   107   104    1
    75    12    11    2
    76   104   105    1
    77    75    74    1
    78    75    76    2
    79    74    77    1
    80    91    92    1
    81    79    81   ar
    82    79    78   ar
    83    20    11   am
    84    77    78    1
    85    11    10    1
    86    92    93    1
    87    81    83   ar
    88    17    19   ar
    89    17    15   ar
    90    19    18   ar
    91    78    80   ar
    92   105   106    2
    93    15    14   ar
    94    18    16   ar
    95    14    16   ar
    96    14    13    1
    97    10    13    1
    98    10     9    1
    99    83    84    1
   100    83    82   ar
   101    93    94    2
   102    93    95   am
   103    80    82   ar
   104     4     3    2
   105    95    96    1
   106   113   114    1
   107   113   110    1
   108   109   110    1
   109   114   116   ar
   110   114   115   ar
   111     7     6    1
   112   116   118   ar
   113    98    97    2
   114     3     2    1
   115   110   111    1
   116     6     8    1
   117     6     5    1
   118   126   124   ar
   119   115   117   ar
   120   125   124   ar
   121    96    97    1
   122    96    99    1
   123   118   117   ar
   124   150   149    1
   125   124   123    1
   126    99   100    1
   127   119   111   am
   128   119   120    1
   129     2     5    1
   130     2     1    1
   131   111   112    2
   132   149   147   ar
   133   149   148   ar
   134   123   120    1
   135   147   145   ar
   136   100   101    1
   137   100   102    1
   138   120   121    1
   139   148   146   ar
   140   145   144   ar
   141   138   137    1
   142   121   122    2
   143   146   144   ar
   144   144   143    1
   145   137   135   ar
   146   137   136   ar
   147   135   133   ar
   148   136   134   ar
   149   133   132   ar
   150   134   132   ar
   151   143   140    1
   152   132   131    1
   153   142   141    2
   154   127   128    1
   155   131   128    1
   156   140   141    1
   157   140   139    1
   158   128   129    1
   159   129   130    2
