@<TRIPOS>MOLECULE
tmp/1y6rB00.pdb
 143 135 0 0 0
SMALL
GASTEIGER

@<TRIPOS>ATOM
      1  N         54.4370   86.6390   46.5220 N.3     8  ALA8       -0.1231
      2  CA        54.5070   87.2930   45.2260 C.3     8  ALA8        0.1694
      3  C         54.5320   88.8160   45.2890 C.2     8  ALA8        0.2591
      4  O         55.3880   89.4490   44.6710 O.2     8  ALA8       -0.2718
      5  CB        53.3440   86.8370   44.3570 C.3     8  ALA8        0.0304
      6  N         53.5980   89.3840   46.0450 N.am    9  MET9       -0.1979
      7  CA        53.4540   90.8180   46.1660 C.3     9  MET9        0.1605
      8  C         54.0960   91.4120   47.4110 C.2     9  MET9        0.2287
      9  O         54.1880   90.7530   48.4450 O.2     9  MET9       -0.2864
     10  CB        51.9700   91.1470   46.1210 C.3     9  MET9        0.0413
     11  CG        51.2930   90.5340   44.8910 C.3     9  MET9        0.0598
     12  SD        49.5290   90.8770   44.8160 S.3     9  MET9       -0.1393
     13  CE        49.6090   92.6930   44.5310 C.3     9  MET9        0.0692
     14  N         52.1600   91.1610   50.3800 N.3    12  GLU12      -0.1245
     15  CA        52.0360   89.8410   50.9880 C.3    12  GLU12       0.1567
     16  C         53.2530   89.4430   51.8340 C.2    12  GLU12       0.2260
     17  O         53.1910   88.4870   52.6130 O.2    12  GLU12      -0.2867
     18  CB        51.7790   88.7880   49.8940 C.3    12  GLU12       0.0388
     19  CG        50.5410   89.0880   49.0260 C.3    12  GLU12       0.1160
     20  CD        50.3930   88.1500   47.8240 C.2    12  GLU12       0.3649
     21  OE1       51.3960   87.9400   47.1040 O.co2  12  GLU12      -0.2457
     22  OE2       49.2710   87.6440   47.5930 O.co2  12  GLU12      -0.2457
     23  N         54.7390   88.6190   40.4720 N.3    50  ILE50      -0.1245
     24  CA        53.5790   87.8670   40.0340 C.3    50  ILE50       0.1561
     25  C         53.7550   86.9750   38.8130 C.2    50  ILE50       0.2260
     26  O         54.5590   87.2640   37.9190 O.2    50  ILE50      -0.2867
     27  CB        52.4250   88.8660   39.7860 C.3    50  ILE50       0.0252
     28  CG1       52.0510   89.5290   41.1210 C.3    50  ILE50       0.0019
     29  CG2       51.2410   88.1660   39.1270 C.3    50  ILE50       0.0019
     30  CD1       51.1140   90.6970   40.9930 C.3    50  ILE50       0.0001
     31  N         47.7010   85.6810   48.7370 N.3    76  SER76      -0.1202
     32  CA        46.2610   85.6620   48.4580 C.3    76  SER76       0.2020
     33  C         45.8670   84.6640   47.3710 C.2    76  SER76       0.2619
     34  O         46.7210   84.1550   46.6290 O.2    76  SER76      -0.2717
     35  CB        45.7970   87.0520   48.0240 C.3    76  SER76       0.2103
     36  OG        46.5240   87.4500   46.8790 O.3    76  SER76      -0.2182
     37  N         44.5620   84.4270   47.2460 N.am   77  ALA77      -0.1965
     38  CA        44.0440   83.4780   46.2600 C.3    77  ALA77       0.1728
     39  C         42.5560   83.6650   46.0140 C.2    77  ALA77       0.2616
     40  O         41.8460   84.1970   46.8630 O.2    77  ALA77      -0.2715
     41  CB        44.2950   82.0460   46.7460 C.3    77  ALA77       0.0334
     42  N         42.0970   83.2360   44.8380 N.am   78  GLY78      -0.1955
     43  CA        40.6830   83.2950   44.5130 C.3    78  GLY78       0.1869
     44  C         40.0660   81.9710   44.9740 C.2    78  GLY78       0.2309
     45  O         40.5130   80.8980   44.5520 O.2    78  GLY78      -0.2863
     46  N         46.8640   83.9410   34.5320 N.3   150  ALA150     -0.1231
     47  CA        45.7010   84.8060   34.3240 C.3   150  ALA150      0.1694
     48  C         44.8610   85.0470   35.5870 C.2   150  ALA150      0.2592
     49  O         44.5820   84.1300   36.3610 O.2   150  ALA150     -0.2718
     50  CB        44.7980   84.2320   33.2210 C.3   150  ALA150      0.0304
     51  N         44.4510   86.2940   35.7900 N.am  151  PHE151     -0.1962
     52  CA        43.6020   86.6160   36.9300 C.3   151  PHE151      0.1771
     53  C         42.1970   86.1080   36.5640 C.2   151  PHE151      0.2619
     54  O         41.6620   86.4680   35.5190 O.2   151  PHE151     -0.2715
     55  CB        43.5910   88.1230   37.1700 C.3   151  PHE151      0.0574
     56  CG        42.7980   88.5250   38.3700 C.ar  151  PHE151     -0.0200
     57  CD1       41.5090   89.0380   38.2310 C.ar  151  PHE151     -0.0042
     58  CD2       43.3120   88.3400   39.6470 C.ar  151  PHE151     -0.0042
     59  CE1       40.7360   89.3630   39.3560 C.ar  151  PHE151     -0.0003
     60  CE2       42.5460   88.6580   40.7730 C.ar  151  PHE151     -0.0003
     61  CZ        41.2520   89.1720   40.6220 C.ar  151  PHE151     -0.0000
     62  N         41.6130   85.2620   37.4090 N.am  152  ILE152     -0.1977
     63  CA        40.2900   84.7010   37.1180 C.3   152  ILE152      0.1596
     64  C         39.2040   85.6530   37.5660 C.2   152  ILE152      0.2287
     65  O         39.1260   86.0140   38.7410 O.2   152  ILE152     -0.2864
     66  CB        40.1120   83.3160   37.7750 C.3   152  ILE152      0.0276
     67  CG1       41.3350   82.4490   37.4600 C.3   152  ILE152      0.0022
     68  CG2       38.8690   82.6420   37.2370 C.3   152  ILE152      0.0022
     69  CD1       41.7320   82.4670   35.9860 C.3   152  ILE152      0.0001
     70  N         42.3370   79.1570   43.1390 N.3   171  VAL171     -0.1231
     71  CA        43.1720   79.4530   42.0020 C.3   171  VAL171      0.1692
     72  C         43.9960   80.7140   42.2370 C.2   171  VAL171      0.2592
     73  O         43.5530   81.6710   42.8800 O.2   171  VAL171     -0.2718
     74  CB        42.2970   79.5780   40.7090 C.3   171  VAL171      0.0266
     75  CG1       41.1740   80.6240   40.9230 C.3   171  VAL171      0.0020
     76  CG2       43.1690   79.9450   39.5110 C.3   171  VAL171      0.0020
     77  N         45.2200   80.6920   41.7370 N.am  172  GLU172     -0.1966
     78  CA        46.0940   81.8350   41.8670 C.3   172  GLU172      0.1733
     79  C         47.1720   81.7790   40.7820 C.2   172  GLU172      0.2616
     80  O         46.9670   81.1130   39.7560 O.2   172  GLU172     -0.2715
     81  CB        46.6480   81.9310   43.3010 C.3   172  GLU172      0.0429
     82  CG        47.1260   80.6260   43.8950 C.3   172  GLU172      0.1163
     83  CD        48.3460   80.1100   43.1870 C.2   172  GLU172      0.3649
     84  OE1       48.2000   79.2240   42.3140 O.co2 172  GLU172     -0.2457
     85  OE2       49.4510   80.6160   43.5020 O.co2 172  GLU172     -0.2457
     86  N         48.3190   82.4170   40.9900 N.am  173  MET173     -0.1963
     87  CA        49.2940   82.4950   39.8950 C.3   173  MET173      0.1736
     88  C         50.7720   82.1400   40.1070 C.2   173  MET173      0.2616
     89  O         51.6030   82.3730   39.2060 O.2   173  MET173     -0.2715
     90  CB        49.2080   83.9130   39.3020 C.3   173  MET173      0.0427
     91  CG        47.8000   84.2870   38.7670 C.3   173  MET173      0.0599
     92  SD        47.5870   86.0750   38.3490 S.3   173  MET173     -0.1393
     93  CE        48.8120   86.2820   37.0150 C.3   173  MET173      0.0692
     94  N         51.1140   81.5920   41.2670 N.am  174  GLU174     -0.1977
     95  CA        52.5110   81.2430   41.5130 C.3   174  GLU174      0.1602
     96  C         52.7280   79.8500   42.0810 C.2   174  GLU174      0.2287
     97  O         53.7570   79.2220   41.8210 O.2   174  GLU174     -0.2864
     98  CB        53.1580   82.2530   42.4730 C.3   174  GLU174      0.0415
     99  CG        53.1930   83.6760   41.9400 C.3   174  GLU174      0.1163
    100  CD        51.8990   84.4360   42.2070 C.2   174  GLU174      0.3649
    101  OE1       51.5260   85.2810   41.3650 O.co2 174  GLU174     -0.2457
    102  OE2       51.2650   84.1900   43.2550 O.co2 174  GLU174     -0.2457
    103  N         47.5780   79.9560   51.6240 N.3   193  ARG193     -0.1245
    104  CA        47.0920   81.2530   51.1960 C.3   193  ARG193      0.1563
    105  C         45.7560   81.5910   51.8190 C.2   193  ARG193      0.2260
    106  O         45.0830   80.7160   52.3850 O.2   193  ARG193     -0.2867
    107  CB        47.0040   81.2960   49.6630 C.3   193  ARG193      0.0307
    108  CG        48.3900   81.2910   49.0060 C.3   193  ARG193      0.0489
    109  CD        48.2830   81.4210   47.5160 C.3   193  ARG193      0.2205
    110  NE        49.5830   81.4290   46.8590 N.pl3 193  ARG193     -0.0865
    111  CZ        49.9960   82.4110   46.0760 C.cat 193  ARG193      0.5346
    112  NH1       49.2070   83.4560   45.8670 N.pl3 193  ARG193      0.1354
    113  NH2       51.1830   82.3460   45.4960 N.pl3 193  ARG193      0.1354
    114  N         41.0920   86.2910   48.9010 N.3   196  SER196     -0.1202
    115  CA        40.8700   87.7200   48.6960 C.3   196  SER196      0.2020
    116  C         39.6600   87.9760   47.8030 C.2   196  SER196      0.2618
    117  O         39.1730   89.1070   47.7140 O.2   196  SER196     -0.2717
    118  CB        42.1010   88.3300   48.0460 C.3   196  SER196      0.2103
    119  OG        42.3460   87.6930   46.8020 O.3   196  SER196     -0.2182
    120  N         39.1730   86.9160   47.1560 N.am  197  ASP197     -0.1973
    121  CA        38.0600   87.0200   46.2350 C.3   197  ASP197      0.1709
    122  C         37.6190   85.6010   45.8720 C.2   197  ASP197      0.2293
    123  O         38.2920   84.6340   46.2280 O.2   197  ASP197     -0.2864
    124  CB        38.5590   87.7430   44.9900 C.3   197  ASP197      0.1436
    125  CG        39.6400   86.9460   44.2670 C.2   197  ASP197      0.3671
    126  OD1       39.3070   86.0310   43.4680 O.co2 197  ASP197     -0.2456
    127  OD2       40.8260   87.2100   44.5300 O.co2 197  ASP197     -0.2456
    128  N         37.0910   84.5730   42.6290 N.3   199  ALA199     -0.1245
    129  CA        37.3400   84.4330   41.1930 C.3   199  ALA199      0.1562
    130  C         36.1410   84.6210   40.2640 C.2   199  ALA199      0.2260
    131  O         36.1670   84.1440   39.1290 O.2   199  ALA199     -0.2867
    132  CB        37.9800   83.0550   40.9220 C.3   199  ALA199      0.0290
    133  N         39.3890   91.7850   45.0750 N.3   207  PHE207     -0.1241
    134  CA        40.8400   91.7730   45.2680 C.3   207  PHE207      0.1605
    135  C         41.3270   93.1310   45.7590 C.2   207  PHE207      0.2264
    136  O         42.1430   93.2070   46.6690 O.2   207  PHE207     -0.2867
    137  CB        41.5810   91.4090   43.9770 C.3   207  PHE207      0.0534
    138  CG        43.0490   91.1470   44.1870 C.ar  207  PHE207     -0.0203
    139  CD1       44.0060   92.1020   43.8290 C.ar  207  PHE207     -0.0042
    140  CD2       43.4720   89.9600   44.8050 C.ar  207  PHE207     -0.0042
    141  CE1       45.3630   91.8820   44.0840 C.ar  207  PHE207     -0.0003
    142  CE2       44.8160   89.7230   45.0690 C.ar  207  PHE207     -0.0003
    143  CZ        45.7750   90.6820   44.7110 C.ar  207  PHE207     -0.0000
@<TRIPOS>BOND
     1    50    47    1
     2    47    46    1
     3    47    48    1
     4    54    53    2
     5    48    51   am
     6    48    49    2
     7    51    52    1
     8    69    67    1
     9    53    52    1
    10    53    62   am
    11    52    55    1
    12    93    92    1
    13    63    62    1
    14    63    64    1
    15    63    66    1
    16    55    56    1
    17    68    66    1
    18    67    66    1
    19    64    65    2
    20    26    25    2
    21    57    56   ar
    22    57    59   ar
    23    92    91    1
    24    56    58   ar
    25    91    90    1
    26    25    24    1
    27    29    27    1
    28   131   130    2
    29    89    88    2
    30    90    87    1
    31    59    61   ar
    32    76    74    1
    33    58    60   ar
    34    80    79    2
    35    27    24    1
    36    27    28    1
    37    87    88    1
    38    87    86    1
    39    24    23    1
    40    88    94   am
    41   130   129    1
    42    61    60   ar
    43    74    75    1
    44    74    71    1
    45    79    86   am
    46    79    78    1
    47   132   129    1
    48    30    28    1
    49   129   128    1
    50    94    95    1
    51   101   100   ar
    52    95    96    1
    53    95    98    1
    54    77    78    1
    55    77    72   am
    56    97    96    2
    57    78    81    1
    58    99   100    1
    59    99    98    1
    60    71    72    1
    61    71    70    1
    62   100   102   ar
    63    72    73    2
    64    84    83   ar
    65    83    85   ar
    66    83    82    1
    67    81    82    1
    68   126   125   ar
    69   139   141   ar
    70   139   138   ar
    71   137   138    1
    72   137   134    1
    73   141   143   ar
    74   138   140   ar
    75   125   127   ar
    76   125   124    1
    77     5     2    1
    78    43    42    1
    79    43    44    1
    80    13    12    1
    81    45    44    2
    82     4     3    2
    83   143   142   ar
    84   140   142   ar
    85    12    11    1
    86    42    39   am
    87    11    10    1
    88   124   121    1
    89   133   134    1
    90     2     3    1
    91     2     1    1
    92   134   135    1
    93     3     6   am
    94   113   111    1
    95   135   136    2
    96   112   111    1
    97   122   123    2
    98   122   121    1
    99    39    38    1
   100    39    40    2
   101     6     7    1
   102   111   110    2
   103    10     7    1
   104     7     8    1
   105   121   120    1
   106    38    41    1
   107    38    37    1
   108    34    33    2
   109   119   118    1
   110   110   109    1
   111    36    35    1
   112    21    20   ar
   113   120   116   am
   114    37    33   am
   115    33    32    1
   116     8     9    2
   117   109   108    1
   118    22    20   ar
   119   117   116    2
   120   116   115    1
   121    20    19    1
   122    35    32    1
   123   118   115    1
   124    32    31    1
   125   115   114    1
   126   108   107    1
   127    19    18    1
   128   107   104    1
   129    18    15    1
   130    14    15    1
   131    15    16    1
   132   104   103    1
   133   104   105    1
   134   105   106    2
   135    16    17    2
