@<TRIPOS>MOLECULE
tmp/1y75A00.pdb
 143 141 0 0 0
SMALL
GASTEIGER

@<TRIPOS>ATOM
      1  N         68.8110   58.8570   13.4490 N.3     2  THR2       -0.1218
      2  CA        69.0600   57.6090   14.1570 C.3     2  THR2        0.1862
      3  C         70.5320   57.1940   14.1650 C.2     2  THR2        0.2287
      4  O         71.0880   56.8360   15.2140 O.2     2  THR2       -0.2866
      5  CB        68.2340   56.4570   13.5300 C.3     2  THR2        0.1770
      6  OG1       66.8470   56.8150   13.5010 O.3     2  THR2       -0.2211
      7  CG2       68.3950   55.1770   14.3360 C.3     2  THR2        0.0375
      8  N         72.6770   59.3930   16.4670 N.3     5  PHE5       -0.1227
      9  CA        72.3810   59.0660   17.8520 C.3     5  PHE5        0.1736
     10  C         73.1050   57.7680   18.2240 C.2     5  PHE5        0.2595
     11  O         73.6460   57.6420   19.3210 O.2     5  PHE5       -0.2718
     12  CB        70.8670   58.9210   18.0460 C.3     5  PHE5        0.0547
     13  CG        70.4570   58.6220   19.4620 C.ar    5  PHE5       -0.0202
     14  CD1       71.1930   59.1200   20.5390 C.ar    5  PHE5       -0.0042
     15  CD2       69.3130   57.8680   19.7250 C.ar    5  PHE5       -0.0042
     16  CE1       70.8030   58.8730   21.8610 C.ar    5  PHE5       -0.0003
     17  CE2       68.9090   57.6130   21.0380 C.ar    5  PHE5       -0.0003
     18  CZ        69.6610   58.1210   22.1120 C.ar    5  PHE5       -0.0000
     19  N         73.1320   56.8110   17.3020 N.am    6  ARG6       -0.1980
     20  CA        73.8130   55.5420   17.5470 C.3     6  ARG6        0.1597
     21  C         75.2970   55.7980   17.8420 C.2     6  ARG6        0.2287
     22  O         75.9050   55.1460   18.6890 O.2     6  ARG6       -0.2864
     23  CB        73.6700   54.6170   16.3300 C.3     6  ARG6        0.0334
     24  CG        74.3920   53.2800   16.4700 C.3     6  ARG6        0.0492
     25  CD        74.6370   52.5600   15.1180 C.3     6  ARG6        0.2205
     26  NE        75.7790   53.0830   14.3580 N.pl3   6  ARG6       -0.0865
     27  CZ        76.8600   52.3680   14.0410 C.cat   6  ARG6        0.5346
     28  NH1       76.9490   51.0960   14.4200 N.pl3   6  ARG6        0.1354
     29  NH2       77.8530   52.9180   13.3370 N.pl3   6  ARG6        0.1354
     30  N         76.0110   57.2550   21.3710 N.3     9  ILE9       -0.1245
     31  CA        75.9520   56.1790   22.3440 C.3     9  ILE9        0.1561
     32  C         77.2630   55.3960   22.4220 C.2     9  ILE9        0.2260
     33  O         77.8130   55.1920   23.5160 O.2     9  ILE9       -0.2867
     34  CB        74.7750   55.2100   22.0350 C.3     9  ILE9        0.0252
     35  CG1       73.4350   55.9310   22.2050 C.3     9  ILE9        0.0019
     36  CG2       74.8330   54.0360   22.9730 C.3     9  ILE9        0.0019
     37  CD1       72.2160   55.0510   21.9010 C.3     9  ILE9        0.0001
     38  N         75.2090   49.2850   20.7680 N.3    18  TRP18      -0.1241
     39  CA        74.0230   50.1220   20.8410 C.3    18  TRP18       0.1605
     40  C         72.7570   49.2650   20.8970 C.2    18  TRP18       0.2264
     41  O         71.6810   49.7630   21.2130 O.2    18  TRP18      -0.2867
     42  CB        73.9440   51.0930   19.6620 C.3    18  TRP18       0.0550
     43  CG        73.5760   50.4670   18.3650 C.ar   18  TRP18       0.0003
     44  CD1       74.4290   49.9390   17.4310 C.ar   18  TRP18       0.0946
     45  CD2       72.2540   50.3170   17.8350 C.ar   18  TRP18       0.0152
     46  NE1       73.7130   49.4760   16.3460 N.ar   18  TRP18      -0.2442
     47  CE2       72.3790   49.6960   16.5700 C.ar   18  TRP18       0.0810
     48  CE3       70.9750   50.6480   18.3050 C.ar   18  TRP18       0.0012
     49  CZ2       71.2660   49.3990   15.7700 C.ar   18  TRP18       0.0191
     50  CZ3       69.8700   50.3510   17.5090 C.ar   18  TRP18       0.0001
     51  CH2       70.0250   49.7350   16.2560 C.ar   18  TRP18       0.0015
     52  N         70.6230   48.9100   24.0330 N.3    21  PHE21      -0.1227
     53  CA        69.6580   49.9770   24.3190 C.3    21  PHE21       0.1736
     54  C         68.4870   49.9950   23.3490 C.2    21  PHE21       0.2595
     55  O         67.6870   50.9330   23.3680 O.2    21  PHE21      -0.2718
     56  CB        70.3320   51.3570   24.2460 C.3    21  PHE21       0.0547
     57  CG        71.4940   51.5230   25.1830 C.ar   21  PHE21      -0.0202
     58  CD1       71.2890   51.6730   26.5540 C.ar   21  PHE21      -0.0042
     59  CD2       72.7970   51.4910   24.7000 C.ar   21  PHE21      -0.0042
     60  CE1       72.3620   51.7820   27.4340 C.ar   21  PHE21      -0.0003
     61  CE2       73.8740   51.5980   25.5610 C.ar   21  PHE21      -0.0003
     62  CZ        73.6590   51.7430   26.9370 C.ar   21  PHE21      -0.0000
     63  N         68.3870   48.9920   22.4840 N.am   22  ALA22      -0.1980
     64  CA        67.2900   48.9620   21.5150 C.3    22  ALA22       0.1597
     65  C         66.0500   48.2800   22.0660 C.2    22  ALA22       0.2287
     66  O         64.9890   48.3250   21.4470 O.2    22  ALA22      -0.2864
     67  CB        67.7320   48.2630   20.2300 C.3    22  ALA22       0.0319
     68  N         61.2070   52.0450   28.1520 N.3    27  TYR27      -0.1227
     69  CA        61.3660   53.1850   27.2460 C.3    27  TYR27       0.1736
     70  C         62.4610   53.1460   26.1820 C.2    27  TYR27       0.2596
     71  O         62.3670   53.8560   25.1810 O.2    27  TYR27      -0.2718
     72  CB        61.5130   54.4630   28.0800 C.3    27  TYR27       0.0548
     73  CG        60.2180   54.8560   28.7480 C.ar   27  TYR27      -0.0200
     74  CD1       59.2590   55.5940   28.0440 C.ar   27  TYR27      -0.0009
     75  CD2       59.9170   54.4990   30.0610 C.ar   27  TYR27      -0.0009
     76  CE1       58.0320   55.9640   28.6240 C.ar   27  TYR27       0.0417
     77  CE2       58.6870   54.8280   30.6510 C.ar   27  TYR27       0.0417
     78  CZ        57.7500   55.5600   29.9270 C.ar   27  TYR27       0.1957
     79  OH        56.5310   55.8760   30.4910 O.3    27  TYR27      -0.2866
     80  N         63.5000   52.3450   26.3780 N.am   28  CYS28      -0.1956
     81  CA        64.5540   52.3040   25.3730 C.3    28  CYS28       0.1843
     82  C         64.0590   51.4660   24.1940 C.2    28  CYS28       0.2626
     83  O         64.1740   50.2400   24.1760 O.2    28  CYS28      -0.2714
     84  CB        65.8590   51.7580   25.9630 C.3    28  CYS28       0.0997
     85  SG        66.5500   52.7770   27.3030 S.3    28  CYS28      -0.0797
     86  N         63.4920   52.1920   23.2300 N.am   29  GLY29      -0.1940
     87  CA        62.8370   51.6520   22.0700 C.3    29  GLY29       0.2014
     88  C         61.4990   52.4030   21.9980 C.2    29  GLY29       0.2639
     89  O         60.6990   52.2610   21.0680 O.2    29  GLY29      -0.2714
     90  N         61.3100   53.2650   23.0400 N.am   30  CYS30      -0.1967
     91  CA        60.2390   54.2740   23.2830 C.3    30  CYS30       0.1712
     92  C         58.7790   53.8410   23.4100 C.2    30  CYS30       0.2296
     93  O         58.1000   53.6200   22.3990 O.2    30  CYS30      -0.2864
     94  CB        60.3510   55.3280   22.1900 C.3    30  CYS30       0.0983
     95  SG        61.5200   56.6740   22.5700 S.3    30  CYS30      -0.0798
     96  N         65.7380   57.1320   28.8050 N.3    43  CYS43      -0.1235
     97  CA        65.0270   56.9210   27.5440 C.3    43  CYS43       0.1677
     98  C         63.6620   57.5820   27.5900 C.2    43  CYS43       0.2270
     99  O         63.1670   58.0510   26.5670 O.2    43  CYS43      -0.2867
    100  CB        64.9030   55.4170   27.2340 C.3    43  CYS43       0.0956
    101  SG        66.5200   54.6020   26.9840 S.3    43  CYS43      -0.0801
    102  N         64.0940   61.0390   26.7620 N.3    46  HIS46      -0.1241
    103  CA        64.4740   61.1510   25.3650 C.3    46  HIS46       0.1621
    104  C         63.2640   61.1100   24.4290 C.2    46  HIS46       0.2264
    105  O         63.1760   61.9320   23.5200 O.2    46  HIS46      -0.2867
    106  CB        65.4960   60.0650   25.0140 C.3    46  HIS46       0.0745
    107  CG        65.9880   60.1330   23.6050 C.ar   46  HIS46       0.0817
    108  ND1       65.3980   59.4250   22.5800 N.ar   46  HIS46      -0.2268
    109  CD2       66.9860   60.8480   23.0420 C.ar   46  HIS46       0.1154
    110  CE1       66.0140   59.7010   21.4460 C.ar   46  HIS46       0.1986
    111  NE2       66.9810   60.5620   21.6960 N.ar   46  HIS46      -0.2212
    112  N         61.8430   64.0530   21.9340 N.3    50  TYR50      -0.1241
    113  CA        61.5570   63.8970   20.5090 C.3    50  TYR50       0.1605
    114  C         60.1470   64.3950   20.2060 C.2    50  TYR50       0.2264
    115  O         59.8850   64.9690   19.1410 O.2    50  TYR50      -0.2867
    116  CB        61.6290   62.4180   20.1090 C.3    50  TYR50       0.0534
    117  CG        62.9480   61.8890   19.5320 C.ar   50  TYR50      -0.0201
    118  CD1       64.1710   62.4620   19.8710 C.ar   50  TYR50      -0.0009
    119  CD2       62.9510   60.8130   18.6340 C.ar   50  TYR50      -0.0009
    120  CE1       65.3710   61.9820   19.3250 C.ar   50  TYR50       0.0417
    121  CE2       64.1500   60.3210   18.0840 C.ar   50  TYR50       0.0417
    122  CZ        65.3550   60.9150   18.4340 C.ar   50  TYR50       0.1957
    123  OH        66.5470   60.4610   17.9010 O.3    50  TYR50      -0.2866
    124  N         63.3900   61.2900   14.1110 N.3    62  LYS62      -0.1245
    125  CA        64.1500   60.1140   13.7110 C.3    62  LYS62       0.1561
    126  C         65.0310   60.2970   12.4930 C.2    62  LYS62       0.2260
    127  O         65.9410   59.4920   12.2340 O.2    62  LYS62      -0.2867
    128  CB        63.2250   58.9180   13.5700 C.3    62  LYS62       0.0271
    129  CG        63.7150   57.6980   14.3530 C.3    62  LYS62       0.0035
    130  CD        64.0760   58.0740   15.7810 C.3    62  LYS62       0.0206
    131  CE        62.8480   58.1570   16.6590 C.3    62  LYS62       0.1093
    132  NZ        62.9230   57.2330   17.8250 N.3    62  LYS62      -0.1314
    133  N         72.7810   57.9780   29.5920 N.3    99  PHE99      -0.1241
    134  CA        73.1000   56.5470   29.6000 C.3    99  PHE99       0.1605
    135  C         74.4240   56.3240   30.3050 C.2    99  PHE99       0.2264
    136  O         74.5760   55.3720   31.0680 O.2    99  PHE99      -0.2867
    137  CB        73.2730   55.9960   28.1840 C.3    99  PHE99       0.0534
    138  CG        72.0210   55.9700   27.3650 C.ar   99  PHE99      -0.0203
    139  CD1       70.8060   56.4030   27.8840 C.ar   99  PHE99      -0.0042
    140  CD2       72.0640   55.4930   26.0610 C.ar   99  PHE99      -0.0042
    141  CE1       69.6600   56.3620   27.1180 C.ar   99  PHE99      -0.0003
    142  CE2       70.9160   55.4460   25.2810 C.ar   99  PHE99      -0.0003
    143  CZ        69.7100   55.8810   25.8100 C.ar   99  PHE99      -0.0000
@<TRIPOS>BOND
     1   127   126    2
     2   126   125    1
     3    29    27    1
     4     1     2    1
     5     6     5    1
     6     5     2    1
     7     5     7    1
     8   128   125    1
     9   128   129    1
    10   125   124    1
    11    27    26    2
    12    27    28    1
    13     2     3    1
    14     3     4    2
    15   129   130    1
    16    26    25    1
    17    25    24    1
    18    49    51   ar
    19    49    47   ar
    20   130   131    1
    21    51    50   ar
    22    23    24    1
    23    23    20    1
    24    46    47   ar
    25    46    44   ar
    26     8     9    1
    27    47    45   ar
    28   131   132    1
    29    19    20    1
    30    19    10   am
    31    44    43   ar
    32    50    48   ar
    33    20    21    1
    34    45    48   ar
    35    45    43   ar
    36    21    22    2
    37     9    12    1
    38     9    10    1
    39   123   122    1
    40    12    13    1
    41   121   122   ar
    42   121   119   ar
    43    10    11    2
    44    43    42    1
    45   122   120   ar
    46   119   117   ar
    47   115   114    2
    48   120   118   ar
    49    13    15   ar
    50    13    14   ar
    51   117   118   ar
    52   117   116    1
    53    42    39    1
    54    15    17   ar
    55   116   113    1
    56   114   113    1
    57    67    64    1
    58   113   112    1
    59    14    16   ar
    60    38    39    1
    61    39    40    1
    62    40    41    2
    63    17    18   ar
    64    89    88    2
    65    30    31    1
    66   110   111   ar
    67   110   108   ar
    68    66    65    2
    69    64    65    1
    70    64    63    1
    71   111   109   ar
    72    16    18   ar
    73    37    35    1
    74    88    87    1
    75    88    90   am
    76    34    35    1
    77    34    31    1
    78    34    36    1
    79    87    86    1
    80    94    95    1
    81    94    91    1
    82    31    32    1
    83    93    92    2
    84    32    33    2
    85    63    54   am
    86   108   107   ar
    87    90    91    1
    88   109   107   ar
    89    86    82   am
    90    91    92    1
    91    54    55    2
    92    54    53    1
    93   105   104    2
    94   107   106    1
    95    52    53    1
    96    83    82    2
    97    82    81    1
    98    56    53    1
    99    56    57    1
   100   104   103    1
   101    59    57   ar
   102    59    61   ar
   103   106   103    1
   104    71    70    2
   105    57    58   ar
   106   142   143   ar
   107   142   140   ar
   108   103   102    1
   109    81    84    1
   110    81    80    1
   111    61    62   ar
   112   143   141   ar
   113    84    85    1
   114   140   138   ar
   115    70    80   am
   116    70    69    1
   117    58    60   ar
   118    99    98    2
   119    62    60   ar
   120   101   100    1
   121   101    85    1
   122   141   139   ar
   123   100    97    1
   124    69    72    1
   125    69    68    1
   126   138   139   ar
   127   138   137    1
   128    97    98    1
   129    97    96    1
   130    74    76   ar
   131    74    73   ar
   132    72    73    1
   133   137   134    1
   134    76    78   ar
   135    73    75   ar
   136   133   134    1
   137   134   135    1
   138    78    79    1
   139    78    77   ar
   140    75    77   ar
   141   135   136    2
