@<TRIPOS>MOLECULE
tmp/1y7iB00.pdb
 140 137 0 0 0
SMALL
GASTEIGER

@<TRIPOS>ATOM
      1  N         -2.7210    2.5780   23.7710 N.3    10  GLY10      -0.1210
      2  CA        -3.2080    2.0350   25.0280 C.3    10  GLY10       0.1956
      3  C         -2.0560    1.6310   25.9320 C.2    10  GLY10       0.2611
      4  O         -0.9110    1.9970   25.6810 O.2    10  GLY10      -0.2717
      5  N         -2.3550    0.8540   26.9720 N.am   11  ALA11      -0.1979
      6  CA        -1.3450    0.4220   27.9310 C.3    11  ALA11       0.1597
      7  C         -0.3060   -0.5450   27.3930 C.2    11  ALA11       0.2287
      8  O         -0.6200   -1.4870   26.6590 O.2    11  ALA11      -0.2864
      9  CB        -2.0140   -0.1920   29.1440 C.3    11  ALA11       0.0319
     10  N          1.7370   -0.1200   25.2050 N.3    13  HIS13      -0.1241
     11  CA         2.0760    0.1050   23.8060 C.3    13  HIS13       0.1621
     12  C          2.6400    1.5120   23.5910 C.2    13  HIS13       0.2264
     13  O          2.8900    2.2360   24.5500 O.2    13  HIS13      -0.2867
     14  CB         0.8490   -0.1350   22.9160 C.3    13  HIS13       0.0745
     15  CG         0.5000   -1.5830   22.7540 C.ar   13  HIS13       0.0817
     16  ND1        0.0540   -2.3620   23.7980 N.ar   13  HIS13      -0.2268
     17  CD2        0.5510   -2.3990   21.6710 C.ar   13  HIS13       0.1154
     18  CE1       -0.1560   -3.5960   23.3690 C.ar   13  HIS13       0.1986
     19  NE2        0.1390   -3.6450   22.0810 N.ar   13  HIS13      -0.2212
     20  N         -6.9850    4.7030   22.1020 N.3    76  HIS76      -0.1226
     21  CA        -7.1660    3.2640   22.1340 C.3    76  HIS76       0.1752
     22  C         -7.0940    2.7490   23.5730 C.2    76  HIS76       0.2597
     23  O         -6.1550    3.0630   24.3030 O.2    76  HIS76      -0.2718
     24  CB        -6.0790    2.5740   21.3170 C.3    76  HIS76       0.0759
     25  CG        -6.2170    1.0850   21.2850 C.ar   76  HIS76       0.0818
     26  ND1       -5.1370    0.2360   21.3780 N.ar   76  HIS76      -0.2268
     27  CD2       -7.3100    0.2940   21.1650 C.ar   76  HIS76       0.1154
     28  CE1       -5.5570   -1.0150   21.3200 C.ar   76  HIS76       0.1986
     29  NE2       -6.8730   -1.0060   21.1910 N.ar   76  HIS76      -0.2212
     30  N         -8.0830    1.9530   23.9660 N.am   77  SER77      -0.1938
     31  CA        -8.1460    1.3740   25.3040 C.3    77  SER77       0.2055
     32  C         -7.8170    2.3470   26.4340 C.2    77  SER77       0.2642
     33  O         -8.5750    3.2790   26.6760 O.2    77  SER77      -0.2714
     34  CB        -7.2470    0.1410   25.3810 C.3    77  SER77       0.2130
     35  OG        -5.9430    0.4160   24.8960 O.3    77  SER77      -0.2179
     36  N         -6.7000    2.1420   27.1300 N.am   78  LEU78      -0.1977
     37  CA        -6.3500    3.0400   28.2340 C.3    78  LEU78       0.1596
     38  C         -6.2290    4.4810   27.7340 C.2    78  LEU78       0.2287
     39  O         -6.4190    5.4340   28.4890 O.2    78  LEU78      -0.2864
     40  CB        -5.0380    2.5930   28.9020 C.3    78  LEU78       0.0297
     41  CG        -4.5420    3.4360   30.0830 C.3    78  LEU78       0.0022
     42  CD1       -5.5960    3.4440   31.1900 C.3    78  LEU78       0.0001
     43  CD2       -3.2300    2.8770   30.5980 C.3    78  LEU78       0.0001
     44  N        -11.4070    2.8270   27.4550 N.3   101  PHE101     -0.1241
     45  CA       -12.0560    3.0820   28.7090 C.3   101  PHE101      0.1605
     46  C        -12.4220    4.5320   28.5650 C.2   101  PHE101      0.2264
     47  O        -11.5620    5.4080   28.4570 O.2   101  PHE101     -0.2867
     48  CB       -11.1090    2.8620   29.8750 C.3   101  PHE101      0.0534
     49  CG       -10.7590    1.4220   30.0920 C.ar  101  PHE101     -0.0203
     50  CD1       -9.4610    0.9750   29.8930 C.ar  101  PHE101     -0.0042
     51  CD2      -11.7300    0.5080   30.4930 C.ar  101  PHE101     -0.0042
     52  CE1       -9.1300   -0.3620   30.0910 C.ar  101  PHE101     -0.0003
     53  CE2      -11.4030   -0.8350   30.6930 C.ar  101  PHE101     -0.0003
     54  CZ       -10.0990   -1.2660   30.4910 C.ar  101  PHE101     -0.0000
     55  N        -15.0270   -2.0880   35.0930 N.3   115  TYR115     -0.1241
     56  CA       -14.3510   -3.1010   34.2870 C.3   115  TYR115      0.1605
     57  C        -13.8650   -4.2500   35.1670 C.2   115  TYR115      0.2264
     58  O        -14.1010   -5.4200   34.8660 O.2   115  TYR115     -0.2867
     59  CB       -13.1600   -2.4780   33.5490 C.3   115  TYR115      0.0534
     60  CG       -12.3000   -3.4810   32.8150 C.ar  115  TYR115     -0.0201
     61  CD1      -12.7500   -4.1030   31.6530 C.ar  115  TYR115     -0.0009
     62  CD2      -11.0460   -3.8340   33.3050 C.ar  115  TYR115     -0.0009
     63  CE1      -11.9690   -5.0570   30.9990 C.ar  115  TYR115      0.0417
     64  CE2      -10.2600   -4.7850   32.6610 C.ar  115  TYR115      0.0417
     65  CZ       -10.7230   -5.3920   31.5130 C.ar  115  TYR115      0.1957
     66  OH        -9.9400   -6.3290   30.8840 O.3   115  TYR115     -0.2866
     67  N         -6.7990  -12.1310   32.9790 N.3   124  TRP124     -0.1241
     68  CA        -5.4790  -11.5080   32.9150 C.3   124  TRP124      0.1605
     69  C         -4.3830  -12.4900   32.5210 C.2   124  TRP124      0.2264
     70  O         -3.3380  -12.0900   32.0080 O.2   124  TRP124     -0.2867
     71  CB        -5.1210  -10.8650   34.2560 C.3   124  TRP124      0.0550
     72  CG        -5.9970   -9.7070   34.6210 C.ar  124  TRP124      0.0003
     73  CD1       -7.0040   -9.6980   35.5420 C.ar  124  TRP124      0.0946
     74  CD2       -5.9460   -8.3840   34.0700 C.ar  124  TRP124      0.0152
     75  NE1       -7.5820   -8.4520   35.6030 N.ar  124  TRP124     -0.2442
     76  CE2       -6.9520   -7.6260   34.7100 C.ar  124  TRP124      0.0810
     77  CE3       -5.1480   -7.7670   33.0990 C.ar  124  TRP124      0.0012
     78  CZ2       -7.1820   -6.2770   34.4090 C.ar  124  TRP124      0.0191
     79  CZ3       -5.3760   -6.4260   32.7990 C.ar  124  TRP124      0.0001
     80  CH2       -6.3860   -5.6970   33.4530 C.ar  124  TRP124      0.0015
     81  N          1.5840   -6.6150   30.3830 N.3   143  PHE143     -0.1241
     82  CA         0.9530   -7.7450   29.7080 C.3   143  PHE143      0.1605
     83  C          1.9830   -8.8150   29.3730 C.2   143  PHE143      0.2264
     84  O          3.1040   -8.5080   28.9690 O.2   143  PHE143     -0.2867
     85  CB         0.2510   -7.3050   28.4120 C.3   143  PHE143      0.0534
     86  CG        -0.7630   -6.2060   28.6040 C.ar  143  PHE143     -0.0203
     87  CD1       -1.5890   -6.1920   29.7230 C.ar  143  PHE143     -0.0042
     88  CD2       -0.8740   -5.1740   27.6780 C.ar  143  PHE143     -0.0042
     89  CE1       -2.5060   -5.1660   29.9230 C.ar  143  PHE143     -0.0003
     90  CE2       -1.7900   -4.1400   27.8670 C.ar  143  PHE143     -0.0003
     91  CZ        -2.6060   -4.1360   28.9950 C.ar  143  PHE143     -0.0000
     92  N         -1.5170  -13.3000   27.4750 N.3   147  PHE147     -0.1241
     93  CA        -2.5930  -12.3220   27.5190 C.3   147  PHE147      0.1605
     94  C         -2.6270  -11.5650   26.1980 C.2   147  PHE147      0.2264
     95  O         -3.6970  -11.3050   25.6540 O.2   147  PHE147     -0.2867
     96  CB        -2.3830  -11.3550   28.6840 C.3   147  PHE147      0.0534
     97  CG        -3.4420  -10.2880   28.7890 C.ar  147  PHE147     -0.0203
     98  CD1       -3.2300   -9.0200   28.2490 C.ar  147  PHE147     -0.0042
     99  CD2       -4.6550  -10.5510   29.4280 C.ar  147  PHE147     -0.0042
    100  CE1       -4.2080   -8.0320   28.3450 C.ar  147  PHE147     -0.0003
    101  CE2       -5.6380   -9.5660   29.5270 C.ar  147  PHE147     -0.0003
    102  CZ        -5.4150   -8.3060   28.9860 C.ar  147  PHE147     -0.0000
    103  N         -5.6070  -10.0610   23.2850 N.3   152  LEU152     -0.1245
    104  CA        -5.4860   -8.7990   22.5710 C.3   152  LEU152      0.1561
    105  C         -5.1870   -8.9220   21.0750 C.2   152  LEU152      0.2260
    106  O         -5.6720   -8.1180   20.2860 O.2   152  LEU152     -0.2867
    107  CB        -4.4060   -7.9400   23.2320 C.3   152  LEU152      0.0270
    108  CG        -4.5650   -7.6900   24.7350 C.3   152  LEU152      0.0019
    109  CD1       -3.4580   -6.7550   25.1950 C.3   152  LEU152      0.0001
    110  CD2       -5.9240   -7.0900   25.0400 C.3   152  LEU152      0.0001
    111  N         -2.6290    1.5610   35.7300 N.3   173  LEU173     -0.1245
    112  CA        -3.9930    2.0620   35.6490 C.3   173  LEU173      0.1561
    113  C         -4.1490    3.2870   36.5380 C.2   173  LEU173      0.2260
    114  O         -5.1470    4.0000   36.4510 O.2   173  LEU173     -0.2867
    115  CB        -4.9900    0.9810   36.0690 C.3   173  LEU173      0.0270
    116  CG        -5.0570   -0.2410   35.1530 C.3   173  LEU173      0.0019
    117  CD1       -6.1730   -1.1680   35.6090 C.3   173  LEU173      0.0001
    118  CD2       -5.3060    0.2210   33.7100 C.3   173  LEU173      0.0001
    119  N         -9.9040   -8.5050   25.2990 N.3   203  GLY203     -0.1210
    120  CA        -9.2850   -7.8140   26.4200 C.3   203  GLY203      0.1956
    121  C        -10.3400   -6.9400   27.0620 C.2   203  GLY203      0.2611
    122  O        -10.4990   -6.9070   28.2860 O.2   203  GLY203     -0.2717
    123  N        -11.0560   -6.2140   26.2160 N.am  204  ILE204     -0.1979
    124  CA       -12.1400   -5.3630   26.6630 C.3   204  ILE204      0.1595
    125  C        -13.3260   -5.8200   25.8270 C.2   204  ILE204      0.2287
    126  O        -13.6370   -5.2320   24.7950 O.2   204  ILE204     -0.2864
    127  CB       -11.8400   -3.8710   26.4130 C.3   204  ILE204      0.0276
    128  CG1      -10.6010   -3.4530   27.2080 C.3   204  ILE204      0.0022
    129  CG2      -13.0370   -3.0290   26.8380 C.3   204  ILE204      0.0022
    130  CD1      -10.2800   -1.9660   27.1250 C.3   204  ILE204      0.0001
    131  N         -9.0040   -6.6290   19.7900 N.3   229  HIS229     -0.1241
    132  CA        -8.5980   -5.4420   20.5450 C.3   229  HIS229      0.1621
    133  C         -7.6930   -4.4980   19.7500 C.2   229  HIS229      0.2264
    134  O         -7.8170   -3.2840   19.8680 O.2   229  HIS229     -0.2867
    135  CB        -7.8790   -5.8550   21.8340 C.3   229  HIS229      0.0745
    136  CG        -7.6680   -4.7260   22.7930 C.ar  229  HIS229      0.0817
    137  ND1       -8.7130   -4.0070   23.3360 N.ar  229  HIS229     -0.2268
    138  CD2       -6.5360   -4.1950   23.3130 C.ar  229  HIS229      0.1154
    139  CE1       -8.2330   -3.0830   24.1500 C.ar  229  HIS229      0.1986
    140  NE2       -6.9140   -3.1770   24.1540 N.ar  229  HIS229     -0.2212
@<TRIPOS>BOND
     1   133   134    2
     2   133   132    1
     3   131   132    1
     4   106   105    2
     5   132   135    1
     6   105   104    1
     7    27    29   ar
     8    27    25   ar
     9    29    28   ar
    10    25    24    1
    11    25    26   ar
    12    24    21    1
    13    28    26   ar
    14    17    19   ar
    15    17    15   ar
    16   135   136    1
    17    19    18   ar
    18    20    21    1
    19    21    22    1
    20   104   107    1
    21   104   103    1
    22    15    14    1
    23    15    16   ar
    24   136   138   ar
    25   136   137   ar
    26    14    11    1
    27   107   108    1
    28   138   140   ar
    29   137   139   ar
    30    18    16   ar
    31    22    30   am
    32    22    23    2
    33    12    11    1
    34    12    13    2
    35     1     2    1
    36    11    10    1
    37    30    31    1
    38   139   140   ar
    39   108   110    1
    40   108   109    1
    41   126   125    2
    42    35    34    1
    43     2     3    1
    44   119   120    1
    45    31    34    1
    46    31    32    1
    47    95    94    2
    48     4     3    2
    49   125   124    1
    50     3     5   am
    51    94    93    1
    52   123   124    1
    53   123   121   am
    54   127   124    1
    55   127   129    1
    56   127   128    1
    57   120   121    1
    58    32    33    2
    59    32    36   am
    60     8     7    2
    61     5     6    1
    62   121   122    2
    63   130   128    1
    64    36    37    1
    65     7     6    1
    66    44    45    1
    67    92    93    1
    68    93    96    1
    69    88    90   ar
    70    88    86   ar
    71    38    37    1
    72    38    39    2
    73    90    91   ar
    74     6     9    1
    75    37    40    1
    76    98   100   ar
    77    98    97   ar
    78   100   102   ar
    79    85    86    1
    80    85    82    1
    81    47    46    2
    82    46    45    1
    83    86    87   ar
    84    96    97    1
    85    45    48    1
    86    97    99   ar
    87    40    41    1
    88    84    83    2
    89   102   101   ar
    90    91    89   ar
    91    83    82    1
    92    99   101   ar
    93    82    81    1
    94    87    89   ar
    95    48    49    1
    96    50    52   ar
    97    50    49   ar
    98    41    43    1
    99    41    42    1
   100    52    54   ar
   101    49    51   ar
   102    54    53   ar
   103    51    53   ar
   104    66    65    1
   105    63    65   ar
   106    63    61   ar
   107    65    64   ar
   108    61    60   ar
   109    70    69    2
   110    69    68    1
   111    64    62   ar
   112    79    77   ar
   113    79    80   ar
   114    60    62   ar
   115    60    59    1
   116    68    67    1
   117    68    71    1
   118    77    74   ar
   119    80    78   ar
   120    59    56    1
   121   118   116    1
   122    74    72   ar
   123    74    76   ar
   124    71    72    1
   125    56    55    1
   126    56    57    1
   127    78    76   ar
   128    72    73   ar
   129    76    75   ar
   130    58    57    2
   131   116   117    1
   132   116   115    1
   133    73    75   ar
   134   112   111    1
   135   112   115    1
   136   112   113    1
   137   114   113    2
