@<TRIPOS>MOLECULE
tmp/1y7tA00.pdb
 191 178 0 0 0
SMALL
GASTEIGER

@<TRIPOS>ATOM
      1  N         51.3690   67.0480   29.8570 N.3    10  THR10      -0.1203
      2  CA        50.9740   67.3460   28.4820 C.3    10  THR10       0.1994
      3  C         49.7240   66.5450   28.1340 C.2    10  THR10       0.2618
      4  O         49.3180   65.6680   28.8990 O.2    10  THR10      -0.2717
      5  CB        52.0940   67.0010   27.4810 C.3    10  THR10       0.1784
      6  OG1       52.2390   65.5790   27.3910 O.3    10  THR10      -0.2211
      7  CG2       53.4130   67.6120   27.9310 C.3    10  THR10       0.0376
      8  N         49.1210   66.8410   26.9820 N.am   11  GLY11      -0.1956
      9  CA        47.9050   66.1470   26.5840 C.3    11  GLY11       0.1869
     10  C         46.8750   66.2340   27.6970 C.2    11  GLY11       0.2309
     11  O         46.0450   65.3420   27.8770 O.2    11  GLY11      -0.2863
     12  N         44.0500   67.7560   28.1850 N.3    13  ALA13      -0.1231
     13  CA        42.6020   67.7650   27.9730 C.3    13  ALA13       0.1694
     14  C         42.0840   66.4080   27.5050 C.2    13  ALA13       0.2593
     15  O         40.8960   66.2600   27.2130 O.2    13  ALA13      -0.2718
     16  CB        42.2270   68.8460   26.9630 C.3    13  ALA13       0.0304
     17  N         42.9790   65.4250   27.4370 N.am   14  GLY14      -0.1942
     18  CA        42.6030   64.0900   27.0000 C.3    14  GLY14       0.2014
     19  C         42.0380   63.1980   28.0940 C.2    14  GLY14       0.2639
     20  O         41.8750   63.6210   29.2360 O.2    14  GLY14      -0.2714
     21  N         41.7510   61.9470   27.7390 N.am   15  GLN15      -0.1963
     22  CA        41.1750   60.9910   28.6770 C.3    15  GLN15       0.1733
     23  C         42.0730   60.6570   29.8640 C.2    15  GLN15       0.2616
     24  O         41.6110   60.6370   31.0040 O.2    15  GLN15      -0.2715
     25  CB        40.7940   59.7120   27.9320 C.3    15  GLN15       0.0408
     26  CG        39.8840   59.9700   26.7410 C.3    15  GLN15       0.0908
     27  CD        39.5850   58.7130   25.9540 C.2    15  GLN15       0.2608
     28  OE1       38.7510   57.9010   26.3510 O.2    15  GLN15      -0.2717
     29  NE2       40.2760   58.5400   24.8330 N.am   15  GLN15      -0.0878
     30  N         43.3450   60.3720   29.6060 N.am   16  ILE16      -0.1977
     31  CA        44.2560   60.0610   30.7060 C.3    16  ILE16       0.1596
     32  C         44.3610   61.2750   31.6160 C.2    16  ILE16       0.2287
     33  O         44.2860   61.1560   32.8390 O.2    16  ILE16      -0.2864
     34  CB        45.6670   59.6720   30.1920 C.3    16  ILE16       0.0276
     35  CG1       45.6160   58.2720   29.5770 C.3    16  ILE16       0.0022
     36  CG2       46.6780   59.6920   31.3430 C.3    16  ILE16       0.0022
     37  CD1       45.1670   57.2120   30.5410 C.3    16  ILE16       0.0001
     38  N         49.8140   71.4940   29.4770 N.3    41  LEU41      -0.1231
     39  CA        50.0800   71.7430   28.0680 C.3    41  LEU41       0.1693
     40  C         49.1050   70.9930   27.1560 C.2    41  LEU41       0.2592
     41  O         48.7150   69.8590   27.4340 O.2    41  LEU41      -0.2718
     42  CB        51.5110   71.3080   27.7300 C.3    41  LEU41       0.0284
     43  CG        51.9900   71.5020   26.2850 C.3    41  LEU41       0.0019
     44  CD1       52.1900   72.9840   26.0080 C.3    41  LEU41       0.0001
     45  CD2       53.2950   70.7410   26.0700 C.3    41  LEU41       0.0001
     46  N         48.7070   71.6490   26.0720 N.am   42  GLU42      -0.1966
     47  CA        47.8270   71.0530   25.0730 C.3    42  GLU42       0.1733
     48  C         48.1900   71.6660   23.7280 C.2    42  GLU42       0.2616
     49  O         48.9810   72.6080   23.6620 O.2    42  GLU42      -0.2715
     50  CB        46.3560   71.3520   25.3770 C.3    42  GLU42       0.0429
     51  CG        45.5620   70.1910   25.9720 C.3    42  GLU42       0.1163
     52  CD        45.5540   68.9540   25.0890 C.2    42  GLU42       0.3649
     53  OE1       45.9050   69.0600   23.8920 O.co2  42  GLU42      -0.2457
     54  OE2       45.1830   67.8730   25.5920 O.co2  42  GLU42      -0.2457
     55  N         47.6360   71.1140   22.6560 N.am   43  ILE43      -0.1977
     56  CA        47.8800   71.6690   21.3330 C.3    43  ILE43       0.1596
     57  C         46.8720   72.8060   21.2020 C.2    43  ILE43       0.2287
     58  O         45.8360   72.8000   21.8660 O.2    43  ILE43      -0.2864
     59  CB        47.6380   70.6300   20.2200 C.3    43  ILE43       0.0276
     60  CG1       46.2400   70.0290   20.3590 C.3    43  ILE43       0.0022
     61  CG2       48.7050   69.5440   20.2860 C.3    43  ILE43       0.0022
     62  CD1       45.8470   69.1130   19.2120 C.3    43  ILE43       0.0001
     63  N         43.0950   72.2740   21.2820 N.3    46  ALA46      -0.1245
     64  CA        42.4900   71.7220   22.4890 C.3    46  ALA46       0.1562
     65  C         42.5490   72.6580   23.6930 C.2    46  ALA46       0.2260
     66  O         42.1890   72.2620   24.8020 O.2    46  ALA46      -0.2867
     67  CB        43.1560   70.3960   22.8360 C.3    46  ALA46       0.0290
     68  N         55.3800   74.5920   25.1040 N.3    74  PRO74      -0.2116
     69  CA        56.1610   73.6870   25.9550 C.3    74  PRO74       0.1372
     70  C         57.1450   74.4240   26.8680 C.2    74  PRO74       0.2244
     71  O         57.4090   73.9910   27.9890 O.2    74  PRO74      -0.2868
     72  CB        56.8840   72.7980   24.9430 C.3    74  PRO74       0.0268
     73  CG        55.9380   72.7700   23.7820 C.3    74  PRO74       0.0207
     74  CD        55.4890   74.2060   23.6860 C.3    74  PRO74       0.0892
     75  N         52.0900   62.8770   28.3370 N.3    87  VAL87      -0.1231
     76  CA        50.9670   62.0290   27.9490 C.3    87  VAL87       0.1692
     77  C         50.5840   62.2130   26.4860 C.2    87  VAL87       0.2593
     78  O         50.2380   61.2510   25.7990 O.2    87  VAL87      -0.2718
     79  CB        49.7390   62.3240   28.8460 C.3    87  VAL87       0.0266
     80  CG1       48.5710   61.4150   28.4700 C.3    87  VAL87       0.0020
     81  CG2       50.1200   62.1260   30.3120 C.3    87  VAL87       0.0020
     82  N         50.6510   63.4500   26.0100 N.am   88  GLY88      -0.1942
     83  CA        50.3110   63.7170   24.6260 C.3    88  GLY88       0.2014
     84  C         51.2520   63.0310   23.6510 C.2    88  GLY88       0.2639
     85  O         52.4690   63.0380   23.8330 O.2    88  GLY88      -0.2714
     86  N         50.6780   62.4270   22.6160 N.am   89  ALA89      -0.1963
     87  CA        51.4540   61.7470   21.5890 C.3    89  ALA89       0.1728
     88  C         50.6750   61.8040   20.2850 C.2    89  ALA89       0.2616
     89  O         49.5340   62.2680   20.2500 O.2    89  ALA89      -0.2715
     90  CB        51.7160   60.2970   21.9840 C.3    89  ALA89       0.0334
     91  N         51.2920   61.3220   19.2140 N.am   90  ALA90      -0.1964
     92  CA        50.6610   61.3340   17.9050 C.3    90  ALA90       0.1713
     93  C         49.4430   60.4240   17.8350 C.2    90  ALA90       0.2458
     94  O         49.5220   59.2380   18.1560 O.2    90  ALA90      -0.2730
     95  CB        51.6660   60.9220   16.8500 C.3    90  ALA90       0.0333
     96  N         48.2920   60.9780   17.4250 N.am   91  PRO91      -0.2727
     97  CA        47.0510   60.2100   17.3040 C.3    91  PRO91       0.1402
     98  C         47.0440   59.5540   15.9270 C.2    91  PRO91       0.2269
     99  O         47.5790   60.1160   14.9710 O.2    91  PRO91      -0.2865
    100  CB        45.9810   61.2830   17.4350 C.3    91  PRO91       0.0296
    101  CG        46.6050   62.4270   16.7010 C.3    91  PRO91       0.0237
    102  CD        48.0370   62.4160   17.2150 C.3    91  PRO91       0.0939
    103  N         57.1450   65.8470   18.1400 N.3   108  ILE108     -0.1245
    104  CA        56.6310   66.1400   19.4730 C.3   108  ILE108      0.1561
    105  C         57.6860   65.9680   20.5610 C.2   108  ILE108      0.2260
    106  O         57.9300   66.8810   21.3500 O.2   108  ILE108     -0.2867
    107  CB        55.4010   65.2490   19.8270 C.3   108  ILE108      0.0252
    108  CG1       54.1400   65.7630   19.1220 C.3   108  ILE108      0.0019
    109  CG2       55.1480   65.2800   21.3300 C.3   108  ILE108      0.0019
    110  CD1       54.2370   65.8750   17.6290 C.3   108  ILE108      0.0001
    111  N         59.7700   68.6510   22.8650 N.3   112  GLN112     -0.1245
    112  CA        59.5860   68.6030   24.3100 C.3   112  GLN112      0.1566
    113  C         60.8760   68.2760   25.0530 C.2   112  GLN112      0.2260
    114  O         61.1160   68.7920   26.1480 O.2   112  GLN112     -0.2867
    115  CB        58.4580   67.6220   24.6640 C.3   112  GLN112      0.0367
    116  CG        57.0950   68.1610   24.2350 C.3   112  GLN112      0.0905
    117  CD        55.9280   67.2500   24.5660 C.2   112  GLN112      0.2608
    118  OE1       54.7770   67.5860   24.2870 O.2   112  GLN112     -0.2717
    119  NE2       56.2140   66.0960   25.1540 N.am  112  GLN112     -0.0878
    120  N         54.1610   58.6400   28.9300 N.3   129  VAL129     -0.1231
    121  CA        52.9910   57.7650   28.8690 C.3   129  VAL129      0.1692
    122  C         52.5230   57.6310   27.4170 C.2   129  VAL129      0.2593
    123  O         52.0850   56.5590   26.9970 O.2   129  VAL129     -0.2718
    124  CB        51.8230   58.3200   29.7250 C.3   129  VAL129      0.0266
    125  CG1       50.5880   57.4400   29.5640 C.3   129  VAL129      0.0020
    126  CG2       52.2350   58.3810   31.1910 C.3   129  VAL129      0.0020
    127  N         52.6220   58.7210   26.6590 N.am  130  GLY130     -0.1942
    128  CA        52.2050   58.7050   25.2620 C.3   130  GLY130      0.2014
    129  C         52.9360   57.6300   24.4790 C.2   130  GLY130      0.2638
    130  O         54.1540   57.5120   24.5820 O.2   130  GLY130     -0.2714
    131  N         52.2020   56.8480   23.6900 N.am  131  ASN131     -0.1972
    132  CA        52.8190   55.7660   22.9250 C.3   131  ASN131      0.1688
    133  C         53.4180   56.1430   21.5750 C.2   131  ASN131      0.2292
    134  O         52.9680   57.0840   20.9260 O.2   131  ASN131     -0.2864
    135  CB        51.8170   54.6250   22.7290 C.3   131  ASN131      0.1181
    136  CG        51.7060   53.7400   23.9520 C.2   131  ASN131      0.2629
    137  OD1       52.6950   53.5060   24.6470 O.2   131  ASN131     -0.2716
    138  ND2       50.5080   53.2230   24.2110 N.am  131  ASN131     -0.0877
    139  N         56.3740   54.4120   30.9690 N.3   155  MET155     -0.1245
    140  CA        55.4910   53.6460   31.8350 C.3   155  MET155      0.1570
    141  C         55.1940   52.1990   31.4750 C.2   155  MET155      0.2261
    142  O         54.8020   51.8860   30.3530 O.2   155  MET155     -0.2867
    143  CB        54.1570   54.3800   31.9960 C.3   155  MET155      0.0387
    144  CG        53.2140   53.7220   32.9940 C.3   155  MET155      0.0595
    145  SD        51.6820   54.6530   33.2380 S.3   155  MET155     -0.1393
    146  CE        50.7330   54.0980   31.8410 C.3   155  MET155      0.0692
    147  N         51.3000   50.0290   34.4650 N.3   158  LEU158     -0.1245
    148  CA        49.9380   49.5300   34.2860 C.3   158  LEU158      0.1561
    149  C         49.9950   48.0290   34.0330 C.2   158  LEU158      0.2260
    150  O         49.1980   47.2670   34.5800 O.2   158  LEU158     -0.2867
    151  CB        49.2370   50.2320   33.1160 C.3   158  LEU158      0.0270
    152  CG        47.8120   49.7460   32.8180 C.3   158  LEU158      0.0019
    153  CD1       46.9520   49.8080   34.0800 C.3   158  LEU158      0.0001
    154  CD2       47.2010   50.6100   31.7200 C.3   158  LEU158      0.0001
    155  N         48.4880   45.1360   36.3640 N.3   162  ARG162     -0.1245
    156  CA        47.5690   44.1630   35.7830 C.3   162  ARG162      0.1563
    157  C         48.0610   42.7500   36.0750 C.2   162  ARG162      0.2260
    158  O         47.2630   41.8390   36.3120 O.2   162  ARG162     -0.2867
    159  CB        47.4690   44.3720   34.2720 C.3   162  ARG162      0.0307
    160  CG        46.6320   45.5830   33.8810 C.3   162  ARG162      0.0489
    161  CD        46.7840   45.8830   32.4010 C.3   162  ARG162      0.2205
    162  NE        45.7890   46.8460   31.9350 N.pl3 162  ARG162     -0.0865
    163  CZ        45.8260   47.4350   30.7440 C.cat 162  ARG162      0.5346
    164  NH1       46.8120   47.1650   29.8970 N.pl3 162  ARG162      0.1354
    165  NH2       44.8750   48.2930   30.3960 N.pl3 162  ARG162      0.1354
    166  N         44.2160   45.6770   27.9130 N.3   226  GLY226     -0.1225
    167  CA        43.7720   46.9690   27.4150 C.3   226  GLY226      0.1811
    168  C         42.6120   46.8190   26.4480 C.2   226  GLY226      0.2280
    169  O         41.6270   47.5570   26.5060 O.2   226  GLY226     -0.2866
    170  N         38.9370   53.4570   26.2460 N.3   236  SER236     -0.1202
    171  CA        40.2390   53.0330   26.7580 C.3   236  SER236      0.2020
    172  C         40.3390   53.1000   28.2820 C.2   236  SER236      0.2619
    173  O         39.5900   53.8270   28.9390 O.2   236  SER236     -0.2717
    174  CB        41.3480   53.8790   26.1240 C.3   236  SER236      0.2103
    175  OG        41.1210   55.2580   26.3380 O.3   236  SER236     -0.2182
    176  N         41.2770   52.3320   28.8300 N.am  237  SER237     -0.1937
    177  CA        41.4860   52.2590   30.2750 C.3   237  SER237      0.2055
    178  C         42.2430   53.4580   30.8330 C.2   237  SER237      0.2642
    179  O         43.3130   53.3190   31.4230 O.2   237  SER237     -0.2714
    180  CB        42.2270   50.9660   30.6210 C.3   237  SER237      0.2130
    181  OG        43.3610   50.7840   29.7890 O.3   237  SER237     -0.2179
    182  N         41.6560   54.6370   30.6720 N.am  238  ALA238     -0.1977
    183  CA        42.2750   55.8710   31.1340 C.3   238  ALA238      0.1597
    184  C         42.4680   55.9710   32.6440 C.2   238  ALA238      0.2287
    185  O         43.5090   56.4280   33.1050 O.2   238  ALA238     -0.2864
    186  CB        41.4680   57.0610   30.6400 C.3   238  ALA238      0.0319
    187  N         45.2400   53.6040   33.8330 N.3   241  ALA241     -0.1245
    188  CA        46.5170   54.0520   33.2830 C.3   241  ALA241      0.1562
    189  C         46.9790   55.2710   34.0900 C.2   241  ALA241      0.2260
    190  O         48.1600   55.4060   34.4150 O.2   241  ALA241     -0.2867
    191  CB        46.3620   54.4160   31.8120 C.3   241  ALA241      0.0290
@<TRIPOS>BOND
     1    99    98    2
     2    98    97    1
     3   101   102    1
     4   101   100    1
     5    95    92    1
     6   102    96    1
     7    97    96    1
     8    97   100    1
     9    96    93   am
    10   110   108    1
    11    93    92    1
    12    93    94    2
    13    92    91    1
    14   103   104    1
    15   108   107    1
    16    62    60    1
    17    91    88   am
    18   104   107    1
    19   104   105    1
    20   107   109    1
    21    59    61    1
    22    59    60    1
    23    59    56    1
    24    89    88    2
    25    88    87    1
    26   105   106    2
    27   134   133    2
    28    57    56    1
    29    57    58    2
    30    63    64    1
    31    56    55    1
    32   133   132    1
    33    87    90    1
    34    87    86    1
    35    64    67    1
    36    64    65    1
    37    86    84   am
    38    55    48   am
    39   135   132    1
    40   135   136    1
    41   111   112    1
    42   132   131    1
    43    84    85    2
    44    84    83    1
    45    49    48    2
    46    74    73    1
    47    74    68    1
    48   131   129   am
    49    65    66    2
    50    48    47    1
    51    73    72    1
    52    53    52   ar
    53   136   138   am
    54   136   137    2
    55   116   117    1
    56   116   115    1
    57   118   117    2
    58   112   115    1
    59   112   113    1
    60   129   130    2
    61   129   128    1
    62   117   119   am
    63    83    82    1
    64    29    27   am
    65    72    69    1
    66   113   114    2
    67    47    50    1
    68    47    46    1
    69    52    54   ar
    70    52    51    1
    71    68    69    1
    72   128   127    1
    73    50    51    1
    74    78    77    2
    75    27    28    2
    76    27    26    1
    77    69    70    1
    78    44    43    1
    79    82    77   am
    80    45    43    1
    81    46    40   am
    82   174   175    1
    83   174   171    1
    84   170   171    1
    85    43    42    1
    86   168   169    2
    87   168   167    1
    88    77    76    1
    89     9     8    1
    90     9    10    1
    91   127   122   am
    92    26    25    1
    93   171   172    1
    94    70    71    2
    95    16    13    1
    96     8     3   am
    97   123   122    2
    98    18    17    1
    99    18    19    1
   100    40    41    2
   101    40    39    1
   102    15    14    2
   103     6     5    1
   104   167   166    1
   105   122   121    1
   106    17    14   am
   107     5     7    1
   108     5     2    1
   109    14    13    1
   110    10    11    2
   111    42    39    1
   112    21    19   am
   113    21    22    1
   114    25    22    1
   115    76    75    1
   116    76    79    1
   117    13    12    1
   118    39    38    1
   119    19    20    2
   120     3     2    1
   121     3     4    2
   122   172   176   am
   123   172   173    2
   124    80    79    1
   125     2     1    1
   126    22    23    1
   127   176   177    1
   128    79    81    1
   129   121   120    1
   130   121   124    1
   131   125   124    1
   132    35    34    1
   133    35    37    1
   134    30    23   am
   135    30    31    1
   136   124   126    1
   137   181   180    1
   138    23    24    2
   139   164   163    1
   140    34    31    1
   141    34    36    1
   142   177   180    1
   143   177   178    1
   144   142   141    2
   145   165   163    1
   146   186   183    1
   147   182   178   am
   148   182   183    1
   149    31    32    1
   150   163   162    2
   151   178   179    2
   152   139   140    1
   153   183   184    1
   154   141   140    1
   155    32    33    2
   156   154   152    1
   157   191   188    1
   158   140   143    1
   159   146   145    1
   160   162   161    1
   161   143   144    1
   162   161   160    1
   163   184   185    2
   164   152   151    1
   165   152   153    1
   166   144   145    1
   167   151   148    1
   168   188   187    1
   169   188   189    1
   170   160   159    1
   171   149   148    1
   172   149   150    2
   173   189   190    2
   174   159   156    1
   175   148   147    1
   176   156   157    1
   177   156   155    1
   178   157   158    2
