@<TRIPOS>MOLECULE
tmp/1y7uB00.pdb
 124 117 0 0 0
SMALL
GASTEIGER

@<TRIPOS>ATOM
      1  N         36.4860   16.4390    6.1220 N.3    51  VAL51      -0.1231
      2  CA        35.6100   17.4320    6.7010 C.3    51  VAL51       0.1692
      3  C         35.8120   18.7430    5.9360 C.2    51  VAL51       0.2593
      4  O         36.9430   19.1150    5.6350 O.2    51  VAL51      -0.2718
      5  CB        35.9880   17.6080    8.1720 C.3    51  VAL51       0.0266
      6  CG1       36.0590   19.0810    8.5350 C.3    51  VAL51       0.0020
      7  CG2       35.0020   16.8650    9.0380 C.3    51  VAL51       0.0020
      8  N         34.7320   19.4460    5.6140 N.am   52  THR52      -0.1939
      9  CA        34.8750   20.7020    4.8810 C.3    52  THR52       0.2028
     10  C         35.2240   21.8490    5.8450 C.2    52  THR52       0.2642
     11  O         34.5220   22.1010    6.8230 O.2    52  THR52      -0.2714
     12  CB        33.5930   21.0180    4.0380 C.3    52  THR52       0.1808
     13  OG1       33.0870   22.2980    4.4010 O.3    52  THR52      -0.2208
     14  CG2       32.5050   19.9680    4.2560 C.3    52  THR52       0.0379
     15  N         36.3320   22.5280    5.5650 N.am   53  ALA53      -0.1963
     16  CA        36.8290   23.6160    6.4100 C.3    53  ALA53       0.1728
     17  C         36.3010   24.9850    6.0580 C.2    53  ALA53       0.2616
     18  O         35.9400   25.7580    6.9360 O.2    53  ALA53      -0.2715
     19  CB        38.3570   23.6410    6.3780 C.3    53  ALA53       0.0334
     20  N         36.2810   25.2990    4.7730 N.am   54  SER54      -0.1950
     21  CA        35.7870   26.5950    4.3360 C.3    54  SER54       0.1924
     22  C         35.3220   26.5820    2.8820 C.2    54  SER54       0.2314
     23  O         35.7240   25.7250    2.0970 O.2    54  SER54      -0.2863
     24  CB        36.8680   27.6590    4.5390 C.3    54  SER54       0.2116
     25  OG        38.0680   27.3460    3.8440 O.3    54  SER54      -0.2180
     26  N         45.3130   21.8490   -4.9710 N.3    77  TRP77      -0.1241
     27  CA        46.2990   22.4120   -4.0560 C.3    77  TRP77       0.1605
     28  C         46.2890   21.6050   -2.7740 C.2    77  TRP77       0.2264
     29  O         45.2440   21.1060   -2.3730 O.2    77  TRP77      -0.2867
     30  CB        45.9440   23.8490   -3.7080 C.3    77  TRP77       0.0550
     31  CG        46.9160   24.4880   -2.7670 C.ar   77  TRP77       0.0003
     32  CD1       47.9780   25.2680   -3.1070 C.ar   77  TRP77       0.0946
     33  CD2       46.9110   24.4190   -1.3320 C.ar   77  TRP77       0.0152
     34  NE1       48.6330   25.6960   -1.9810 N.ar   77  TRP77      -0.2442
     35  CE2       48.0040   25.1920   -0.8750 C.ar   77  TRP77       0.0810
     36  CE3       46.0930   23.7810   -0.3880 C.ar   77  TRP77       0.0012
     37  CZ2       48.3030   25.3500    0.4930 C.ar   77  TRP77       0.0191
     38  CZ3       46.3910   23.9370    0.9850 C.ar   77  TRP77       0.0001
     39  CH2       47.4900   24.7180    1.4040 C.ar   77  TRP77       0.0015
     40  N         48.2100   21.1910    1.3930 N.3    79  GLY79      -0.1210
     41  CA        49.0590   21.7430    2.4330 C.3    79  GLY79       0.1956
     42  C         49.7000   20.5190    3.0470 C.2    79  GLY79       0.2612
     43  O         50.3990   19.7750    2.3590 O.2    79  GLY79      -0.2717
     44  N         49.4540   20.2850    4.3290 N.am   80  ARG80      -0.1965
     45  CA        50.0050   19.1060    4.9820 C.3    80  ARG80       0.1729
     46  C         48.8280   18.1550    5.1410 C.2    80  ARG80       0.2617
     47  O         48.8640   17.0080    4.6860 O.2    80  ARG80      -0.2715
     48  CB        50.5840   19.4780    6.3510 C.3    80  ARG80       0.0348
     49  CG        51.8360   18.6940    6.7470 C.3    80  ARG80       0.0492
     50  CD        51.5430   17.4950    7.6450 C.3    80  ARG80       0.2205
     51  NE        51.0250   17.8950    8.9540 N.pl3  80  ARG80      -0.0865
     52  CZ        50.8750   17.0740    9.9920 C.cat  80  ARG80       0.5346
     53  NH1       51.2070   15.7930    9.8910 N.pl3  80  ARG80       0.1354
     54  NH2       50.3800   17.5310   11.1350 N.pl3  80  ARG80       0.1354
     55  N         47.7660   18.6690    5.7580 N.am   81  THR81      -0.1937
     56  CA        46.5540   17.8950    6.0060 C.3    81  THR81       0.2028
     57  C         45.3330   18.4540    5.2850 C.2    81  THR81       0.2642
     58  O         44.2320   17.9430    5.4590 O.2    81  THR81      -0.2714
     59  CB        46.2100   17.8720    7.4970 C.3    81  THR81       0.1808
     60  OG1       45.8420   19.1950    7.9160 O.3    81  THR81      -0.2208
     61  CG2       47.3980   17.3970    8.3050 C.3    81  THR81       0.0379
     62  N         45.5150   19.4970    4.4850 N.am   82  SER82      -0.1949
     63  CA        44.3800   20.0870    3.7920 C.3    82  SER82       0.1924
     64  C         44.5020   20.1260    2.2820 C.2    82  SER82       0.2314
     65  O         45.5790   19.9420    1.7190 O.2    82  SER82      -0.2863
     66  CB        44.1330   21.4970    4.3100 C.3    82  SER82       0.2116
     67  OG        45.2900   22.2890    4.1550 O.3    82  SER82      -0.2180
     68  N         37.6390   24.0820    0.7450 N.3   107  THR107     -0.1218
     69  CA        38.7950   23.5600    1.4420 C.3   107  THR107      0.1862
     70  C         38.3950   22.4340    2.3650 C.2   107  THR107      0.2287
     71  O         37.5000   22.5840    3.1960 O.2   107  THR107     -0.2866
     72  CB        39.4900   24.6610    2.2610 C.3   107  THR107      0.1770
     73  OG1       39.8390   25.7420    1.3960 O.3   107  THR107     -0.2211
     74  CG2       40.7630   24.1390    2.9030 C.3   107  THR107      0.0375
     75  N         39.7840   19.1610    5.0200 N.3   109  VAL109     -0.1245
     76  CA        40.8590   18.7340    5.8980 C.3   109  VAL109      0.1561
     77  C         40.6440   17.2510    6.2130 C.2   109  VAL109      0.2260
     78  O         39.5490   16.8390    6.6060 O.2   109  VAL109     -0.2867
     79  CB        40.8620   19.5350    7.2080 C.3   109  VAL109      0.0252
     80  CG1       41.8840   18.9540    8.1630 C.3   109  VAL109      0.0019
     81  CG2       41.1830   20.9800    6.9280 C.3   109  VAL109      0.0019
     82  N         40.9020   13.8940    8.3380 N.3   111  LEU111     -0.1245
     83  CA        41.0000   13.5940    9.7580 C.3   111  LEU111      0.1561
     84  C         41.0350   12.1040   10.0480 C.2   111  LEU111      0.2260
     85  O         40.5170   11.2890    9.2780 O.2   111  LEU111     -0.2867
     86  CB        39.8390   14.2380   10.5190 C.3   111  LEU111      0.0270
     87  CG        39.7370   15.7670   10.4760 C.3   111  LEU111      0.0019
     88  CD1       38.5930   16.2220   11.3590 C.3   111  LEU111      0.0001
     89  CD2       41.0330   16.3920   10.9510 C.3   111  LEU111      0.0001
     90  N         39.6150   12.3910   15.1050 N.3   115  ASN115     -0.1240
     91  CA        39.4670   13.8140   14.8110 C.3   115  ASN115      0.1653
     92  C         40.7970   14.5540   14.7670 C.2   115  ASN115      0.2266
     93  O         40.9130   15.6650   15.2890 O.2   115  ASN115     -0.2867
     94  CB        38.5680   14.4950   15.8510 C.3   115  ASN115      0.1155
     95  CG        37.1590   14.7250   15.3470 C.2   115  ASN115      0.2627
     96  OD1       36.4080   13.7790   15.1110 O.2   115  ASN115     -0.2716
     97  ND2       36.7910   15.9920   15.1780 N.am  115  ASN115     -0.0877
     98  N         43.9500   15.9860   12.2350 N.3   117  PRO117     -0.2116
     99  CA        44.3700   16.2770   10.8630 C.3   117  PRO117      0.1372
    100  C         45.4880   15.3300   10.4770 C.2   117  PRO117      0.2244
    101  O         46.5040   15.2560   11.1580 O.2   117  PRO117     -0.2868
    102  CB        44.8350   17.7250   10.9480 C.3   117  PRO117      0.0268
    103  CG        43.9230   18.2970   12.0090 C.3   117  PRO117      0.0207
    104  CD        43.9630   17.2110   13.0570 C.3   117  PRO117      0.0892
    105  N         44.0200   32.4250    3.7960 N.3   144  ARG144     -0.1245
    106  CA        42.9930   31.7670    4.5930 C.3   144  ARG144      0.1563
    107  C         43.0450   32.0680    6.0890 C.2   144  ARG144      0.2260
    108  O         42.0010   32.1050    6.7530 O.2   144  ARG144     -0.2867
    109  CB        42.9740   30.2510    4.3370 C.3   144  ARG144      0.0307
    110  CG        44.1540   29.4320    4.7780 C.3   144  ARG144      0.0489
    111  CD        43.6020   28.1610    5.4010 C.3   144  ARG144      0.2205
    112  NE        44.3770   26.9370    5.1810 N.pl3 144  ARG144     -0.0865
    113  CZ        44.4970   26.3030    4.0150 C.cat 144  ARG144      0.5346
    114  NH1       43.9040   26.7760    2.9170 N.pl3 144  ARG144      0.1354
    115  NH2       45.1720   25.1600    3.9580 N.pl3 144  ARG144      0.1354
    116  N         39.8090   33.4390    8.2100 N.3   148  LYS148     -0.1245
    117  CA        39.3840   32.7490    9.4170 C.3   148  LYS148      0.1561
    118  C         39.4080   33.6550   10.6500 C.2   148  LYS148      0.2260
    119  O         38.5140   33.5990   11.4950 O.2   148  LYS148     -0.2867
    120  CB        40.2720   31.5400    9.6430 C.3   148  LYS148      0.0271
    121  CG        39.8110   30.6480   10.7460 C.3   148  LYS148      0.0035
    122  CD        40.6620   29.4180   10.7430 C.3   148  LYS148      0.0206
    123  CE        40.1850   28.4440   11.7800 C.3   148  LYS148      0.1093
    124  NZ        41.0740   27.2530   11.7710 N.3   148  LYS148     -0.1314
@<TRIPOS>BOND
     1    26    27    1
     2    27    30    1
     3    27    28    1
     4    30    31    1
     5    32    31   ar
     6    32    34   ar
     7    28    29    2
     8    31    33   ar
     9    34    35   ar
    10    33    35   ar
    11    33    36   ar
    12    35    37   ar
    13    36    38   ar
    14    37    39   ar
    15    68    69    1
    16    38    39   ar
    17    40    41    1
    18    73    72    1
    19    69    72    1
    20    69    70    1
    21    65    64    2
    22    23    22    2
    23    72    74    1
    24    64    63    1
    25    43    42    2
    26    70    71    2
    27    41    42    1
    28    22    21    1
    29   114   113    1
    30    42    44   am
    31    63    66    1
    32    63    62    1
    33   105   106    1
    34    25    24    1
    35   115   113    1
    36   113   112    2
    37    12    14    1
    38    12    13    1
    39    12     9    1
    40    67    66    1
    41    44    45    1
    42    21    24    1
    43    21    20    1
    44   109   106    1
    45   109   110    1
    46    62    57   am
    47   106   107    1
    48    47    46    2
    49    20    17   am
    50   110   111    1
    51     9     8    1
    52     9    10    1
    53    45    46    1
    54    45    48    1
    55    75    76    1
    56    46    55   am
    57   112   111    1
    58    57    58    2
    59    57    56    1
    60    15    10   am
    61    15    16    1
    62     8     3   am
    63     4     3    2
    64    55    56    1
    65    10    11    2
    66    76    77    1
    67    76    79    1
    68     3     2    1
    69    56    59    1
    70    17    16    1
    71    17    18    2
    72   107   108    2
    73     1     2    1
    74    77    78    2
    75    48    49    1
    76    19    16    1
    77     2     5    1
    78    49    50    1
    79    81    79    1
    80    79    80    1
    81    59    60    1
    82    59    61    1
    83    50    51    1
    84     5     6    1
    85     5     7    1
    86   116   117    1
    87    82    83    1
    88    51    52    2
    89    85    84    2
    90   117   120    1
    91   117   118    1
    92   120   121    1
    93    83    84    1
    94    83    86    1
    95    53    52    1
    96    52    54    1
    97    87    86    1
    98    87    89    1
    99    87    88    1
   100   100    99    1
   101   100   101    2
   102   118   119    2
   103   122   121    1
   104   122   123    1
   105    99   102    1
   106    99    98    1
   107   102   103    1
   108   124   123    1
   109   103   104    1
   110    98   104    1
   111    92    91    1
   112    92    93    2
   113    91    90    1
   114    91    94    1
   115    96    95    2
   116    97    95   am
   117    95    94    1
