@<TRIPOS>MOLECULE
tmp/1y7vB01.pdb
 129 126 0 0 0
SMALL
GASTEIGER

@<TRIPOS>ATOM
      1  N         38.4250   99.9320   14.6670 N.3   127  ASP127     -0.1225
      2  CA        39.4880  100.2100   15.6560 C.3   127  ASP127      0.1805
      3  C         39.2730  101.4660   16.4870 C.2   127  ASP127      0.2597
      4  O         39.9080  101.6770   17.5330 O.2   127  ASP127     -0.2718
      5  CB        40.8300  100.2690   14.9520 C.3   127  ASP127      0.1424
      6  CG        40.8380  101.2590   13.8620 C.2   127  ASP127      0.3668
      7  OD1       39.7940  101.3420   13.1350 O.co2 127  ASP127     -0.2456
      8  OD2       41.8810  101.9490   13.7490 O.co2 127  ASP127     -0.2456
      9  N         38.3620  102.3000   16.0040 N.am  128  PHE128     -0.1976
     10  CA        38.0000  103.4960   16.7030 C.3   128  PHE128      0.1639
     11  C         36.6760  103.2320   17.3900 C.2   128  PHE128      0.2290
     12  O         35.6540  103.8830   17.1700 O.2   128  PHE128     -0.2864
     13  CB        37.9730  104.6620   15.7480 C.3   128  PHE128      0.0560
     14  CG        39.3350  105.2040   15.4790 C.ar  128  PHE128     -0.0200
     15  CD1       40.0200  104.8730   14.3330 C.ar  128  PHE128     -0.0042
     16  CD2       39.9560  106.0460   16.4060 C.ar  128  PHE128     -0.0042
     17  CE1       41.3030  105.3920   14.1250 C.ar  128  PHE128     -0.0003
     18  CE2       41.2270  106.5530   16.1950 C.ar  128  PHE128     -0.0003
     19  CZ        41.8940  106.2340   15.0650 C.ar  128  PHE128     -0.0000
     20  N         33.4390   96.6350    8.9950 N.3   179  TRP179     -0.1241
     21  CA        34.8600   96.2750    9.1260 C.3   179  TRP179      0.1605
     22  C         34.9890   94.7410    9.2000 C.2   179  TRP179      0.2264
     23  O         35.7990   94.1170    8.4830 O.2   179  TRP179     -0.2867
     24  CB        35.4620   96.9230   10.3690 C.3   179  TRP179      0.0550
     25  CG        36.1490   98.2320   10.0880 C.ar  179  TRP179      0.0003
     26  CD1       37.5070   98.5030   10.2100 C.ar  179  TRP179      0.0946
     27  CD2       35.5360   99.4550    9.6460 C.ar  179  TRP179      0.0152
     28  NE1       37.7500   99.8150    9.8730 N.ar  179  TRP179     -0.2442
     29  CE2       36.5670  100.4180    9.5240 C.ar  179  TRP179      0.0810
     30  CE3       34.2080   99.8290    9.3320 C.ar  179  TRP179      0.0012
     31  CZ2       36.3170  101.7210    9.1080 C.ar  179  TRP179      0.0191
     32  CZ3       33.9580  101.1130    8.9160 C.ar  179  TRP179      0.0001
     33  CH2       35.0060  102.0550    8.8070 C.ar  179  TRP179      0.0015
     34  N         34.8860   97.5230    4.3890 N.3   234  ASN234     -0.1225
     35  CA        35.9610   98.4710    4.6000 C.3   234  ASN234      0.1785
     36  C         37.2610   97.7480    4.3080 C.2   234  ASN234      0.2597
     37  O         37.4760   96.6450    4.7900 O.2   234  ASN234     -0.2718
     38  CB        36.0330   98.9530    6.0330 C.3   234  ASN234      0.1169
     39  CG        37.2330   99.8660    6.2650 C.2   234  ASN234      0.2627
     40  OD1       37.2510  101.0030    5.8010 O.2   234  ASN234     -0.2716
     41  ND2       38.2550   99.3630    6.9660 N.am  234  ASN234     -0.0877
     42  N         38.1230   98.3530    3.5130 N.am  235  GLU235     -0.1979
     43  CA        39.4220   97.7800    3.2140 C.3   235  GLU235      0.1602
     44  C         39.4320   96.2520    3.1250 C.2   235  GLU235      0.2287
     45  O         40.1250   95.5660    3.9080 O.2   235  GLU235     -0.2864
     46  CB        40.4400   98.2370    4.2630 C.3   235  GLU235      0.0415
     47  CG        40.4060   99.7120    4.5500 C.3   235  GLU235      0.1163
     48  CD        41.7920  100.3060    4.8620 C.2   235  GLU235      0.3649
     49  OE1       42.6080   99.6620    5.5760 O.co2 235  GLU235     -0.2457
     50  OE2       42.0470  101.4440    4.3990 O.co2 235  GLU235     -0.2457
     51  N         46.5110   90.8970   10.8550 N.3   244  TYR244     -0.1241
     52  CA        45.8420   92.1960   10.8290 C.3   244  TYR244      0.1605
     53  C         45.2530   92.3760   12.2070 C.2   244  TYR244      0.2264
     54  O         44.4540   91.5510   12.6580 O.2   244  TYR244     -0.2867
     55  CB        44.7250   92.2970    9.7710 C.3   244  TYR244      0.0534
     56  CG        44.4960   93.7350    9.3920 C.ar  244  TYR244     -0.0201
     57  CD1       45.4800   94.4560    8.7030 C.ar  244  TYR244     -0.0009
     58  CD2       43.3470   94.4000    9.7830 C.ar  244  TYR244     -0.0009
     59  CE1       45.3200   95.8070    8.4170 C.ar  244  TYR244      0.0417
     60  CE2       43.1680   95.7560    9.5070 C.ar  244  TYR244      0.0417
     61  CZ        44.1540   96.4600    8.8250 C.ar  244  TYR244      0.1957
     62  OH        43.9880   97.8140    8.5600 O.3   244  TYR244     -0.2866
     63  N         43.0150   94.6770   13.6680 N.3   246  PHE246     -0.1241
     64  CA        41.6480   94.9930   14.0680 C.3   246  PHE246      0.1605
     65  C         40.5490   94.5280   13.1370 C.2   246  PHE246      0.2264
     66  O         40.8180   93.9020   12.1180 O.2   246  PHE246     -0.2867
     67  CB        41.5090   96.5050   14.3320 C.3   246  PHE246      0.0534
     68  CG        41.9210   97.3750   13.1680 C.ar  246  PHE246     -0.0203
     69  CD1       41.0110   97.6980   12.1590 C.ar  246  PHE246     -0.0042
     70  CD2       43.2320   97.8740   13.0800 C.ar  246  PHE246     -0.0042
     71  CE1       41.3910   98.5050   11.0800 C.ar  246  PHE246     -0.0003
     72  CE2       43.6200   98.6840   12.0040 C.ar  246  PHE246     -0.0003
     73  CZ        42.7040   98.9990   11.0080 C.ar  246  PHE246     -0.0000
     74  N         46.2210  107.3240    2.6140 N.3   313  TYR313     -0.1241
     75  CA        47.0330  107.6710    3.7670 C.3   313  TYR313      0.1605
     76  C         48.0230  108.7190    3.3310 C.2   313  TYR313      0.2264
     77  O         49.1000  108.4070    2.8340 O.2   313  TYR313     -0.2867
     78  CB        47.7570  106.4220    4.2200 C.3   313  TYR313      0.0534
     79  CG        46.8140  105.2470    4.2680 C.ar  313  TYR313     -0.0201
     80  CD1       46.1460  104.9220    5.4390 C.ar  313  TYR313     -0.0009
     81  CD2       46.5260  104.5150    3.1110 C.ar  313  TYR313     -0.0009
     82  CE1       45.2150  103.9060    5.4580 C.ar  313  TYR313      0.0417
     83  CE2       45.5990  103.5000    3.1190 C.ar  313  TYR313      0.0417
     84  CZ        44.9470  103.1970    4.2950 C.ar  313  TYR313      0.1957
     85  OH        44.0390  102.1650    4.3210 O.3   313  TYR313     -0.2866
     86  N         37.9310  107.5980    2.9260 N.3   340  GLU340     -0.1245
     87  CA        38.6720  107.6550    4.1620 C.3   340  GLU340      0.1567
     88  C         40.0410  108.2550    3.8950 C.2   340  GLU340      0.2260
     89  O         40.7090  107.9130    2.9170 O.2   340  GLU340     -0.2867
     90  CB        38.8020  106.2570    4.7400 C.3   340  GLU340      0.0388
     91  CG        39.2760  106.1820    6.1820 C.3   340  GLU340      0.1160
     92  CD        39.5630  104.7510    6.5960 C.2   340  GLU340      0.3649
     93  OE1       38.5690  104.0000    6.7640 O.co2 340  GLU340     -0.2457
     94  OE2       40.7750  104.3750    6.6860 O.co2 340  GLU340     -0.2457
     95  N         43.7350  109.8190    5.9680 N.3   342  CYS342     -0.1235
     96  CA        44.5670  109.6950    7.1630 C.3   342  CYS342      0.1677
     97  C         45.8830  110.4390    7.2080 C.2   342  CYS342      0.2270
     98  O         46.5420  110.5710    6.1920 O.2   342  CYS342     -0.2867
     99  CB        44.9520  108.2400    7.3240 C.3   342  CYS342      0.0956
    100  SG        44.0850  107.4390    8.5480 S.3   342  CYS342     -0.0801
    101  N         38.2610  110.8300    7.9890 N.3   381  TRP381     -0.1241
    102  CA        38.0830  109.7470    8.9280 C.3   381  TRP381      0.1605
    103  C         37.2730  110.2610   10.1290 C.2   381  TRP381      0.2264
    104  O         36.2120  110.8800    9.9490 O.2   381  TRP381     -0.2867
    105  CB        39.4430  109.1730    9.3530 C.3   381  TRP381      0.0550
    106  CG        39.3950  107.7770   10.0170 C.ar  381  TRP381      0.0003
    107  CD1       40.4150  107.1530   10.6710 C.ar  381  TRP381      0.0946
    108  CD2       38.2800  106.8620   10.0710 C.ar  381  TRP381      0.0152
    109  NE1       40.0130  105.9160   11.1270 N.ar  381  TRP381     -0.2442
    110  CE2       38.7090  105.7190   10.7740 C.ar  381  TRP381      0.0810
    111  CE3       36.9650  106.9020    9.5960 C.ar  381  TRP381      0.0012
    112  CZ2       37.8750  104.6400   11.0170 C.ar  381  TRP381      0.0191
    113  CZ3       36.1340  105.8190    9.8400 C.ar  381  TRP381      0.0001
    114  CH2       36.5900  104.7080   10.5450 C.ar  381  TRP381      0.0015
    115  N         45.6370  102.3650   17.5010 N.3   396  ASN396     -0.1240
    116  CA        45.9610  102.7790   16.1480 C.3   396  ASN396      0.1653
    117  C         45.5460  104.2460   15.9560 C.2   396  ASN396      0.2266
    118  O         44.7890  104.5920   15.0370 O.2   396  ASN396     -0.2867
    119  CB        45.2450  101.8770   15.1470 C.3   396  ASN396      0.1155
    120  CG        45.5160  102.2780   13.7160 C.2   396  ASN396      0.2627
    121  OD1       46.6110  102.7740   13.4020 O.2   396  ASN396     -0.2716
    122  ND2       44.5300  102.0640   12.8290 N.am  396  ASN396     -0.0877
    123  N         45.5320  108.2530   15.2030 N.3   398  VAL398     -0.1245
    124  CA        45.8890  109.1190   14.0900 C.3   398  VAL398      0.1561
    125  C         45.4070  110.5070   14.4700 C.2   398  VAL398      0.2260
    126  O         44.9670  110.7240   15.5940 O.2   398  VAL398     -0.2867
    127  CB        45.1990  108.7010   12.7610 C.3   398  VAL398      0.0252
    128  CG1       45.8290  107.4120   12.2440 C.3   398  VAL398      0.0019
    129  CG2       43.6600  108.5460   12.9670 C.3   398  VAL398      0.0019
@<TRIPOS>BOND
     1    74    75    1
     2    77    76    2
     3    89    88    2
     4    86    87    1
     5    81    83   ar
     6    81    79   ar
     7    83    84   ar
     8    44    43    1
     9    44    45    2
    10    43    42    1
    11    43    46    1
    12    76    75    1
    13    42    36   am
    14    75    78    1
    15    88    87    1
    16    87    90    1
    17    78    79    1
    18    46    47    1
    19    79    80   ar
    20    84    85    1
    21    84    82   ar
    22    36    35    1
    23    36    37    2
    24    34    35    1
    25    50    48   ar
    26    47    48    1
    27    35    38    1
    28    90    91    1
    29    48    49   ar
    30    80    82   ar
    31    40    39    2
    32    95    96    1
    33    38    39    1
    34    91    92    1
    35    98    97    2
    36    39    41   am
    37    92    94   ar
    38    92    93   ar
    39    96    97    1
    40    96    99    1
    41    99   100    1
    42   101   102    1
    43    59    57   ar
    44    59    61   ar
    45    23    22    2
    46    62    61    1
    47    57    56   ar
    48    33    32   ar
    49    33    31   ar
    50    61    60   ar
    51    32    30   ar
    52   102   105    1
    53   102   103    1
    54    20    21    1
    55    31    29   ar
    56    21    22    1
    57    21    24    1
    58    30    27   ar
    59   105   106    1
    60    56    55    1
    61    56    58   ar
    62    60    58   ar
    63    29    27   ar
    64    29    28   ar
    65   111   113   ar
    66   111   108   ar
    67    27    25   ar
    68    55    52    1
    69   113   114   ar
    70    28    26   ar
    71   104   103    2
    72   106   108   ar
    73   106   107   ar
    74   108   110   ar
    75    25    26   ar
    76    25    24    1
    77   114   112   ar
    78   107   109   ar
    79   110   112   ar
    80   110   109   ar
    81    52    51    1
    82    52    53    1
    83    73    71   ar
    84    73    72   ar
    85    71    69   ar
    86    72    70   ar
    87    66    65    2
    88    69    68   ar
    89    53    54    2
    90   128   127    1
    91   127   129    1
    92   127   124    1
    93   122   120   am
    94    70    68   ar
    95     7     6   ar
    96    65    64    1
    97    68    67    1
    98   121   120    2
    99    63    64    1
   100   120   119    1
   101     8     6   ar
   102     6     5    1
   103    64    67    1
   104   124   125    1
   105   124   123    1
   106    17    15   ar
   107    17    19   ar
   108    15    14   ar
   109   125   126    2
   110     1     2    1
   111     5     2    1
   112   118   117    2
   113    19    18   ar
   114   119   116    1
   115    14    13    1
   116    14    16   ar
   117     2     3    1
   118    13    10    1
   119   117   116    1
   120     9     3   am
   121     9    10    1
   122   116   115    1
   123    18    16   ar
   124     3     4    2
   125    10    11    1
   126    12    11    2
