@<TRIPOS>MOLECULE
tmp/1y80A00.pdb
 195 190 0 0 0
SMALL
GASTEIGER

@<TRIPOS>ATOM
      1  N         21.4320   15.6990   31.4740 N.3     9  LEU9       -0.1245
      2  CA        21.2300   14.5160   32.3340 C.3     9  LEU9        0.1561
      3  C         21.7220   14.7820   33.7480 C.2     9  LEU9        0.2260
      4  O         22.7680   15.3870   33.9370 O.2     9  LEU9       -0.2867
      5  CB        21.9970   13.3050   31.7990 C.3     9  LEU9        0.0270
      6  CG        21.5550   12.6290   30.5100 C.3     9  LEU9        0.0019
      7  CD1       22.4410   11.3900   30.2850 C.3     9  LEU9        0.0001
      8  CD2       20.0880   12.2490   30.5550 C.3     9  LEU9        0.0001
      9  N         19.2780   14.4320   46.4790 N.3    14  GLY14      -0.1210
     10  CA        19.3200   13.4070   47.5250 C.3    14  GLY14       0.1956
     11  C         19.9690   12.1040   47.1030 C.2    14  GLY14       0.2612
     12  O         20.2050   11.2230   47.9400 O.2    14  GLY14      -0.2717
     13  N         20.2730   11.9870   45.8080 N.am   15  ASP15      -0.1959
     14  CA        20.7050   10.7260   45.2040 C.3    15  ASP15       0.1840
     15  C         22.1350   10.8600   44.6580 C.2    15  ASP15       0.2622
     16  O         22.4360   11.8020   43.9580 O.2    15  ASP15      -0.2715
     17  CB        19.7150   10.3240   44.0990 C.3    15  ASP15       0.1450
     18  CG        19.7090    8.8240   43.8230 C.2    15  ASP15       0.3671
     19  OD1       20.7900    8.2190   43.8190 O.co2  15  ASP15      -0.2456
     20  OD2       18.6040    8.2460   43.6320 O.co2  15  ASP15      -0.2456
     21  N         23.0090    9.9100   45.0000 N.am   16  LEU16      -0.1963
     22  CA        24.4210    9.9630   44.6440 C.3    16  LEU16       0.1728
     23  C         24.8090    8.8350   43.6570 C.2    16  LEU16       0.2616
     24  O         25.9820    8.6940   43.3100 O.2    16  LEU16      -0.2715
     25  CB        25.2910    9.8910   45.8940 C.3    16  LEU16       0.0311
     26  CG        25.0210   10.9530   46.9640 C.3    16  LEU16       0.0022
     27  CD1       25.9360   10.7570   48.1670 C.3    16  LEU16       0.0001
     28  CD2       25.1920   12.3490   46.3620 C.3    16  LEU16       0.0001
     29  N         23.8190    8.0560   43.2040 N.am   17  HIS17      -0.1959
     30  CA        24.0640    6.9520   42.2500 C.3    17  HIS17       0.1787
     31  C         24.2100    7.5160   40.8440 C.2    17  HIS17       0.2620
     32  O         23.3430    8.2540   40.3860 O.2    17  HIS17      -0.2715
     33  CB        22.8950    5.9420   42.2790 C.3    17  HIS17       0.0785
     34  CG        22.6820    5.2750   43.6210 C.ar   17  HIS17       0.0821
     35  ND1       21.9740    5.8690   44.6480 N.ar   17  HIS17      -0.2267
     36  CD2       23.0840    4.0680   44.0940 C.ar   17  HIS17       0.1154
     37  CE1       21.9490    5.0560   45.6940 C.ar   17  HIS17       0.1986
     38  NE2       22.6220    3.9590   45.3870 N.ar   17  HIS17      -0.2212
     39  N         25.2870    7.1460   40.1400 N.am   18  ASP18      -0.1957
     40  CA        25.4930    7.6320   38.7480 C.3    18  ASP18       0.1840
     41  C         26.0830    6.6170   37.7470 C.2    18  ASP18       0.2622
     42  O         26.2930    6.9580   36.5880 O.2    18  ASP18      -0.2715
     43  CB        26.3330    8.9150   38.7530 C.3    18  ASP18       0.1450
     44  CG        27.7360    8.7120   39.2610 C.2    18  ASP18       0.3671
     45  OD1       28.1710    7.5510   39.4450 O.co2  18  ASP18      -0.2456
     46  OD2       28.4210    9.7390   39.5020 O.co2  18  ASP18      -0.2456
     47  N         26.3200    5.3830   38.1770 N.am   19  ILE19      -0.1963
     48  CA        26.8370    4.3390   37.2690 C.3    19  ILE19       0.1727
     49  C         25.8840    4.1150   36.0730 C.2    19  ILE19       0.2617
     50  O         26.3180    4.1190   34.9120 O.2    19  ILE19      -0.2715
     51  CB        27.1220    3.0070   38.0420 C.3    19  ILE19       0.0290
     52  CG1       28.3070    3.1890   38.9780 C.3    19  ILE19       0.0022
     53  CG2       27.4040    1.8410   37.0700 C.3    19  ILE19       0.0023
     54  CD1       28.4400    2.0670   40.0500 C.3    19  ILE19       0.0001
     55  N         24.5840    3.9480   36.3610 N.am   20  GLY20      -0.1940
     56  CA        23.5720    3.7710   35.3360 C.3    20  GLY20       0.2014
     57  C         23.4470    4.9940   34.4360 C.2    20  GLY20       0.2638
     58  O         23.4810    4.8800   33.2090 O.2    20  GLY20      -0.2714
     59  N         23.3020    6.1680   35.0590 N.am   21  LYS21      -0.1977
     60  CA        23.2250    7.4440   34.3320 C.3    21  LYS21       0.1596
     61  C         24.4120    7.6140   33.3790 C.2    21  LYS21       0.2287
     62  O         24.2510    8.0260   32.2180 O.2    21  LYS21      -0.2864
     63  CB        23.1920    8.6230   35.3280 C.3    21  LYS21       0.0298
     64  CG        23.3230   10.0290   34.6670 C.3    21  LYS21       0.0038
     65  CD        23.2480   11.1650   35.6850 C.3    21  LYS21       0.0206
     66  CE        24.4080   11.1780   36.6960 C.3    21  LYS21       0.1093
     67  NZ        25.7500   11.2790   36.0820 N.3    21  LYS21      -0.1314
     68  N         26.3080    5.2640   32.0290 N.3    23  LEU23      -0.1231
     69  CA        26.1710    4.3320   30.8910 C.3    23  LEU23       0.1693
     70  C         25.1650    4.8620   29.8580 C.2    23  LEU23       0.2591
     71  O         25.4010    4.7990   28.6500 O.2    23  LEU23      -0.2718
     72  CB        25.7610    2.9330   31.3800 C.3    23  LEU23       0.0284
     73  CG        25.6620    1.8350   30.3030 C.3    23  LEU23       0.0019
     74  CD1       26.9330    1.7710   29.4760 C.3    23  LEU23       0.0001
     75  CD2       25.3630    0.4640   30.9230 C.3    23  LEU23       0.0001
     76  N         24.0340    5.3970   30.3410 N.am   24  VAL24      -0.1980
     77  CA        23.0630    6.0510   29.4780 C.3    24  VAL24       0.1595
     78  C         23.7360    7.1790   28.6720 C.2    24  VAL24       0.2287
     79  O         23.5680    7.2660   27.4550 O.2    24  VAL24      -0.2864
     80  CB        21.8370    6.5990   30.3110 C.3    24  VAL24       0.0276
     81  CG1       20.9310    7.4560   29.4390 C.3    24  VAL24       0.0022
     82  CG2       21.0590    5.4170   30.9640 C.3    24  VAL24       0.0022
     83  N         16.9060   14.5240   31.1660 N.3    60  GLY60      -0.1210
     84  CA        16.8260   13.1740   31.7060 C.3    60  GLY60       0.1956
     85  C         17.2070   13.1600   33.1720 C.2    60  GLY60       0.2612
     86  O         18.1940   13.7990   33.5800 O.2    60  GLY60      -0.2717
     87  N         16.4490   12.4070   33.9540 N.am   61  MET61      -0.1965
     88  CA        16.6680   12.2820   35.3760 C.3    61  MET61       0.1736
     89  C         16.8000   10.8100   35.7670 C.2    61  MET61       0.2617
     90  O         16.0320    9.9640   35.2970 O.2    61  MET61      -0.2715
     91  CB        15.5020   12.9040   36.1260 C.3    61  MET61       0.0427
     92  CG        15.4100   14.3960   35.9500 C.3    61  MET61       0.0599
     93  SD        14.1340   15.1220   37.0060 S.3    61  MET61      -0.1393
     94  CE        12.6780   14.8050   36.0530 C.3    61  MET61       0.0692
     95  N         17.7820   10.5250   36.6170 N.am   62  SER62      -0.1950
     96  CA        17.9970    9.1970   37.1390 C.3    62  SER62       0.1924
     97  C         17.7760    9.2130   38.6320 C.2    62  SER62       0.2314
     98  O         18.1370   10.1630   39.3040 O.2    62  SER62      -0.2863
     99  CB        19.4370    8.7340   36.8100 C.3    62  SER62       0.2116
    100  OG        19.6690    7.3900   37.2040 O.3    62  SER62      -0.2180
    101  N         17.9140    6.1130   41.8940 N.3    64  LEU64      -0.1231
    102  CA        18.0120    4.7170   42.3470 C.3    64  LEU64       0.1693
    103  C         17.3820    4.4860   43.7110 C.2    64  LEU64       0.2592
    104  O         17.1390    3.3340   44.0830 O.2    64  LEU64      -0.2718
    105  CB        19.4730    4.2240   42.3570 C.3    64  LEU64       0.0284
    106  CG        20.1150    3.7020   41.0730 C.3    64  LEU64       0.0019
    107  CD1       19.6160    2.3180   40.7740 C.3    64  LEU64       0.0001
    108  CD2       19.8880    4.6530   39.8670 C.3    64  LEU64       0.0001
    109  N         17.1330    5.5620   44.4630 N.am   65  LEU65      -0.1966
    110  CA        16.4470    5.4750   45.7610 C.3    65  LEU65       0.1728
    111  C         14.9500    5.7300   45.5870 C.2    65  LEU65       0.2617
    112  O         14.5520    6.7330   45.0010 O.2    65  LEU65      -0.2715
    113  CB        17.0120    6.5220   46.7160 C.3    65  LEU65       0.0311
    114  CG        18.5010    6.4490   47.0370 C.3    65  LEU65       0.0022
    115  CD1       18.9360    7.6880   47.8670 C.3    65  LEU65       0.0001
    116  CD2       18.8090    5.1520   47.7690 C.3    65  LEU65       0.0001
    117  N         14.1210    4.8250   46.0890 N.am   66  THR66      -0.1937
    118  CA        12.6650    5.0620   46.1550 C.3    66  THR66       0.2028
    119  C         12.3410    6.4290   46.7880 C.2    66  THR66       0.2642
    120  O         11.4200    7.1070   46.3680 O.2    66  THR66      -0.2714
    121  CB        11.9390    3.9260   46.9440 C.3    66  THR66       0.1808
    122  OG1       12.4230    3.8790   48.2740 O.3    66  THR66      -0.2208
    123  CG2       12.1770    2.5910   46.3130 C.3    66  THR66       0.0379
    124  N         13.1410    6.8260   47.7810 N.am   67  THR67      -0.1950
    125  CA        12.9250    8.0560   48.5260 C.3    67  THR67       0.1897
    126  C         13.3710    9.3350   47.7970 C.2    67  THR67       0.2313
    127  O         13.1300   10.4360   48.2910 O.2    67  THR67      -0.2863
    128  CB        13.6400    8.0000   49.8850 C.3    67  THR67       0.1794
    129  OG1       15.0270    7.6420   49.6970 O.3    67  THR67      -0.2208
    130  CG2       12.9680    6.9920   50.7810 C.3    67  THR67       0.0378
    131  N         12.5940   12.7690   30.3810 N.3    91  ILE91      -0.1231
    132  CA        12.6680   11.3100   30.4830 C.3    91  ILE91       0.1692
    133  C         13.1970   10.9320   31.8710 C.2    91  ILE91       0.2592
    134  O         13.9960   11.6400   32.4380 O.2    91  ILE91      -0.2718
    135  CB        13.4680   10.6640   29.3420 C.3    91  ILE91       0.0266
    136  CG1       14.9240   11.1340   29.3080 C.3    91  ILE91       0.0019
    137  CG2       12.8010   10.9550   28.0200 C.3    91  ILE91       0.0020
    138  CD1       15.8060   10.2440   28.4980 C.3    91  ILE91       0.0001
    139  N         12.7150    9.8160   32.4020 N.am   92  VAL92      -0.1966
    140  CA        13.1460    9.3260   33.7100 C.3    92  VAL92       0.1727
    141  C         13.5750    7.8520   33.6190 C.2    92  VAL92       0.2617
    142  O         13.0680    7.0900   32.7750 O.2    92  VAL92      -0.2715
    143  CB        12.0360    9.5450   34.7790 C.3    92  VAL92       0.0290
    144  CG1       11.6850   11.0470   34.8470 C.3    92  VAL92       0.0023
    145  CG2       10.7770    8.6740   34.4680 C.3    92  VAL92       0.0023
    146  N         14.5440    7.4760   34.4640 N.am   93  GLY93      -0.1940
    147  CA        14.9780    6.1050   34.5720 C.3    93  GLY93       0.2014
    148  C         15.6380    5.8060   35.8950 C.2    93  GLY93       0.2639
    149  O         15.7950    6.7020   36.7680 O.2    93  GLY93      -0.2714
    150  N         16.0460    4.5390   36.0480 N.am   94  GLY94      -0.1939
    151  CA        16.5690    4.0310   37.2920 C.3    94  GLY94       0.2014
    152  C         15.8650    2.7450   37.6240 C.2    94  GLY94       0.2639
    153  O         14.7060    2.5420   37.2300 O.2    94  GLY94      -0.2714
    154  N         16.5530    1.8690   38.3470 N.am   95  ALA95      -0.1963
    155  CA        15.9710    0.5840   38.7750 C.3    95  ALA95       0.1713
    156  C         14.5200    0.6600   39.3500 C.2    95  ALA95       0.2458
    157  O         13.6750   -0.1800   38.9730 O.2    95  ALA95      -0.2730
    158  CB        16.9030   -0.1160   39.7580 C.3    95  ALA95       0.0333
    159  N         14.2340    1.6300   40.2660 N.am   96  PRO96      -0.2727
    160  CA        12.8520    1.6970   40.8170 C.3    96  PRO96       0.1402
    161  C         11.8230    2.4000   39.9150 C.2    96  PRO96       0.2269
    162  O         10.6100    2.3950   40.2250 O.2    96  PRO96      -0.2865
    163  CB        13.0310    2.4720   42.1190 C.3    96  PRO96       0.0296
    164  CG        14.2220    3.3430   41.9020 C.3    96  PRO96       0.0237
    165  CD        15.1060    2.6600   40.8680 C.3    96  PRO96       0.0939
    166  N         12.5140    4.7240   30.1750 N.3   111  ALA111     -0.1231
    167  CA        13.2110    3.6250   29.5190 C.3   111  ALA111      0.1679
    168  C         13.8250    2.7240   30.6000 C.2   111  ALA111      0.2434
    169  O         14.3560    3.2300   31.5910 O.2   111  ALA111     -0.2733
    170  CB        14.2850    4.1520   28.6020 C.3   111  ALA111      0.0304
    171  N         13.7170    1.3840   30.4260 N.am  112  PRO112     -0.2718
    172  CA        14.2560    0.4470   31.4220 C.3   112  PRO112      0.1535
    173  C         15.7730    0.3190   31.4280 C.2   112  PRO112      0.2599
    174  O         16.3320   -0.1470   32.4020 O.2   112  PRO112     -0.2715
    175  CB        13.6190   -0.8900   31.0130 C.3   112  PRO112      0.0310
    176  CG        13.4360   -0.7570   29.5150 C.3   112  PRO112      0.0237
    177  CD        13.0290    0.6680   29.3180 C.3   112  PRO112      0.0939
    178  N         16.4370    0.7020   30.3460 N.am  113  ASP113     -0.1958
    179  CA        17.9010    0.5220   30.2610 C.3   113  ASP113      0.1840
    180  C         18.5260    1.5140   29.2850 C.2   113  ASP113      0.2621
    181  O         17.8140    2.2810   28.6340 O.2   113  ASP113     -0.2715
    182  CB        18.2720   -0.9420   29.9070 C.3   113  ASP113      0.1450
    183  CG        17.6040   -1.4530   28.6140 C.2   113  ASP113      0.3671
    184  OD1       17.4590   -0.6940   27.6290 O.co2 113  ASP113     -0.2456
    185  OD2       17.2510   -2.6590   28.5820 O.co2 113  ASP113     -0.2456
    186  N         19.8510    1.4930   29.1800 N.am  114  ALA114     -0.1977
    187  CA        20.5560    2.4520   28.3470 C.3   114  ALA114      0.1597
    188  C         20.2030    2.3240   26.8490 C.2   114  ALA114      0.2287
    189  O         19.9520    3.3370   26.1860 O.2   114  ALA114     -0.2864
    190  CB        22.0250    2.3280   28.5380 C.3   114  ALA114      0.0319
    191  N         16.7760    3.6310   26.3040 N.3   117  ALA117     -0.1245
    192  CA        16.8150    5.0880   26.5350 C.3   117  ALA117      0.1562
    193  C         17.2460    5.8360   25.2660 C.2   117  ALA117      0.2260
    194  O         16.7110    6.9030   24.9560 O.2   117  ALA117     -0.2867
    195  CB        17.7350    5.4230   27.6820 C.3   117  ALA117      0.0290
@<TRIPOS>BOND
     1   194   193    2
     2   193   192    1
     3   189   188    2
     4   191   192    1
     5   192   195    1
     6   188   187    1
     7    79    78    2
     8   184   183   ar
     9   137   135    1
    10   187   190    1
    11   187   186    1
    12   138   136    1
    13   185   183   ar
    14   170   167    1
    15   183   182    1
    16   181   180    2
    17    71    70    2
    18    78    77    1
    19   186   180   am
    20   180   179    1
    21   136   135    1
    22   177   176    1
    23   177   171    1
    24   135   132    1
    25    81    80    1
    26    74    73    1
    27    77    80    1
    28    77    76    1
    29   176   175    1
    30   167   166    1
    31   167   168    1
    32    70    76   am
    33    70    69    1
    34   182   179    1
    35   179   178    1
    36     7     6    1
    37    73    75    1
    38    73    72    1
    39    80    82    1
    40   178   173   am
    41   131   132    1
    42   171   168   am
    43   171   172    1
    44   132   133    1
    45     6     8    1
    46     6     5    1
    47   168   169    2
    48    69    72    1
    49    69    68    1
    50   175   172    1
    51    83    84    1
    52   172   173    1
    53   173   174    2
    54     1     2    1
    55    84    85    1
    56     5     2    1
    57   133   139   am
    58   133   134    2
    59    62    61    2
    60     2     3    1
    61   139   140    1
    62   142   141    2
    63    85    86    2
    64    85    87   am
    65    58    57    2
    66    61    60    1
    67   141   140    1
    68   141   146   am
    69   140   143    1
    70     3     4    2
    71    87    88    1
    72    60    59    1
    73    60    63    1
    74    57    59   am
    75    57    56    1
    76   146   147    1
    77   145   143    1
    78   147   148    1
    79    64    63    1
    80    64    65    1
    81   143   144    1
    82    50    49    2
    83    90    89    2
    84    56    55    1
    85    88    89    1
    86    88    91    1
    87    65    66    1
    88    89    95   am
    89   148   150   am
    90   148   149    2
    91    92    91    1
    92    92    93    1
    93   150   151    1
    94    94    93    1
    95    49    55   am
    96    49    48    1
    97    67    66    1
    98    42    41    2
    99    95    96    1
   100    99    96    1
   101    99   100    1
   102    53    51    1
   103    96    97    1
   104   153   152    2
   105    48    51    1
   106    48    47    1
   107   151   152    1
   108   152   154   am
   109    41    47   am
   110    41    40    1
   111    51    52    1
   112   154   155    1
   113    97    98    2
   114    40    43    1
   115    40    39    1
   116    43    44    1
   117   155   156    1
   118   155   158    1
   119   157   156    2
   120    52    54    1
   121    44    45   ar
   122    44    46   ar
   123   156   159   am
   124   108   106    1
   125   161   162    2
   126   161   160    1
   127    39    31   am
   128   159   160    1
   129   159   165    1
   130    32    31    2
   131   107   106    1
   132   160   163    1
   133    31    30    1
   134   165   164    1
   135   106   105    1
   136   101   102    1
   137   164   163    1
   138    30    33    1
   139    30    29    1
   140    33    34    1
   141   102   105    1
   142   102   103    1
   143    29    23   am
   144    24    23    2
   145    34    36   ar
   146    34    35   ar
   147    20    18   ar
   148    23    22    1
   149   103   104    2
   150   103   109   am
   151    19    18   ar
   152    18    17    1
   153    16    15    2
   154    36    38   ar
   155    17    14    1
   156   109   110    1
   157    22    21    1
   158    22    25    1
   159    35    37   ar
   160    15    21   am
   161    15    14    1
   162   112   111    2
   163    14    13    1
   164    38    37   ar
   165   111   110    1
   166   111   117   am
   167   110   113    1
   168    13    11   am
   169    25    26    1
   170   117   118    1
   171   118   119    1
   172   118   121    1
   173   123   121    1
   174    28    26    1
   175   120   119    2
   176     9    10    1
   177   113   114    1
   178   119   124   am
   179   121   122    1
   180    26    27    1
   181   114   116    1
   182   114   115    1
   183    11    10    1
   184    11    12    2
   185   124   125    1
   186   126   127    2
   187   126   125    1
   188   125   128    1
   189   129   128    1
   190   128   130    1
