@<TRIPOS>MOLECULE
tmp/1y81A00.pdb
 206 199 0 0 0
SMALL
GASTEIGER

@<TRIPOS>ATOM
      1  N         48.9500   11.4350   12.2020 N.3     7  VAL7       -0.1231
      2  CA        48.7110   12.0720   13.4950 C.3     7  VAL7        0.1692
      3  C         47.8640   13.3320   13.2350 C.2     7  VAL7        0.2592
      4  O         48.3000   14.2300   12.5260 O.2     7  VAL7       -0.2718
      5  CB        50.0340   12.4410   14.2270 C.3     7  VAL7        0.0266
      6  CG1       49.7470   13.3150   15.4860 C.3     7  VAL7        0.0020
      7  CG2       50.8350   11.1680   14.6120 C.3     7  VAL7        0.0020
      8  N         46.6550   13.3660   13.8130 N.am    8  GLY8       -0.1957
      9  CA        45.6910   14.4220   13.5220 C.3     8  GLY8        0.1869
     10  C         44.6490   14.0340   12.4930 C.2     8  GLY8        0.2309
     11  O         43.8500   14.8820   12.0690 O.2     8  GLY8       -0.2863
     12  N         41.2160   12.9260   11.1030 N.3    10  SER10      -0.1217
     13  CA        39.9590   13.4140   11.6410 C.3    10  SER10       0.1889
     14  C         38.7880   12.8790   10.8390 C.2    10  SER10       0.2288
     15  O         38.9520   12.5180    9.6750 O.2    10  SER10      -0.2866
     16  CB        39.9340   14.9420   11.5920 C.3    10  SER10       0.2089
     17  OG        38.7010   15.4120   12.0880 O.3    10  SER10      -0.2183
     18  N         36.2290   14.9170   10.5820 N.3    12  ASN12      -0.1240
     19  CA        35.7310   16.1930   10.0650 C.3    12  ASN12       0.1653
     20  C         36.1920   16.4150    8.6200 C.2    12  ASN12       0.2266
     21  O         37.3830   16.6370    8.3850 O.2    12  ASN12      -0.2867
     22  CB        36.1870   17.3500   10.9780 C.3    12  ASN12       0.1155
     23  CG        35.6340   18.7140   10.5370 C.2    12  ASN12       0.2627
     24  OD1       35.0890   18.8680    9.4220 O.2    12  ASN12      -0.2716
     25  ND2       35.7810   19.7130   11.4070 N.am   12  ASN12      -0.0877
     26  N         38.6810   19.1440    7.6010 N.3    15  LYS15      -0.1231
     27  CA        40.0190   19.1720    8.1630 C.3    15  LYS15       0.1693
     28  C         40.9910   18.3670    7.3010 C.2    15  LYS15       0.2592
     29  O         40.6260   17.3150    6.7500 O.2    15  LYS15      -0.2718
     30  CB        40.0110   18.6490    9.6050 C.3    15  LYS15       0.0285
     31  CG        39.3740   19.6150   10.6350 C.3    15  LYS15       0.0035
     32  CD        40.4360   20.5720   11.2260 C.3    15  LYS15       0.0206
     33  CE        39.9160   21.3840   12.4220 C.3    15  LYS15       0.1093
     34  NZ        39.1750   20.5490   13.4060 N.3    15  LYS15      -0.1314
     35  N         42.2230   18.8530    7.2000 N.am   16  TYR16      -0.1962
     36  CA        43.2580   18.1210    6.4430 C.3    16  TYR16       0.1771
     37  C         43.5020   16.6830    6.9650 C.2    16  TYR16       0.2620
     38  O         43.8680   15.7960    6.2010 O.2    16  TYR16      -0.2715
     39  CB        44.5520   18.9290    6.3570 C.3    16  TYR16       0.0574
     40  CG        44.5290   19.9080    5.1920 C.ar   16  TYR16      -0.0198
     41  CD1       44.5320   19.4400    3.8760 C.ar   16  TYR16      -0.0009
     42  CD2       44.4530   21.3090    5.4020 C.ar   16  TYR16      -0.0009
     43  CE1       44.5020   20.3230    2.7780 C.ar   16  TYR16       0.0417
     44  CE2       44.4240   22.2060    4.2930 C.ar   16  TYR16       0.0417
     45  CZ        44.4440   21.6940    3.0000 C.ar   16  TYR16       0.1957
     46  OH        44.4150   22.5170    1.8930 O.3    16  TYR16      -0.2866
     47  N         43.2640   16.4610    8.2540 N.am   17  GLY17      -0.1954
     48  CA        43.3420   15.0900    8.8270 C.3    17  GLY17       0.1869
     49  C         42.4280   14.0870    8.1150 C.2    17  GLY17       0.2309
     50  O         42.7740   12.9120    7.9800 O.2    17  GLY17      -0.2863
     51  N         43.5300   14.3330    3.8010 N.3    20  ILE20      -0.1245
     52  CA        44.7550   13.5640    3.5620 C.3    20  ILE20       0.1561
     53  C         44.4770   12.0570    3.6610 C.2    20  ILE20       0.2260
     54  O         44.8660   11.2940    2.7720 O.2    20  ILE20      -0.2867
     55  CB        45.8910   13.9910    4.5160 C.3    20  ILE20       0.0252
     56  CG1       46.2790   15.4640    4.2440 C.3    20  ILE20       0.0019
     57  CG2       47.1320   13.0460    4.3950 C.3    20  ILE20       0.0019
     58  CD1       47.1050   16.0610    5.3460 C.3    20  ILE20       0.0001
     59  N         45.6850    8.3700   13.6700 N.3    34  VAL34      -0.1231
     60  CA        46.0350    8.5190   15.0560 C.3    34  VAL34       0.1692
     61  C         45.3680    9.7910   15.6100 C.2    34  VAL34       0.2592
     62  O         45.7040   10.9180   15.2090 O.2    34  VAL34      -0.2718
     63  CB        47.5910    8.5850   15.2640 C.3    34  VAL34       0.0266
     64  CG1       47.9320    8.8570   16.7150 C.3    34  VAL34       0.0020
     65  CG2       48.3110    7.2990   14.6640 C.3    34  VAL34       0.0020
     66  N         44.4170    9.5910   16.5170 N.am   35  ASN35      -0.1961
     67  CA        43.6440   10.6920   17.1250 C.3    35  ASN35       0.1804
     68  C         42.8140   10.1100   18.2810 C.2    35  ASN35       0.2463
     69  O         41.9680    9.2560   18.0470 O.2    35  ASN35      -0.2730
     70  CB        42.7390   11.3770   16.0850 C.3    35  ASN35       0.1195
     71  CG        42.0050   12.6340   16.6560 C.2    35  ASN35       0.2630
     72  OD1       41.7120   12.7080   17.8540 O.2    35  ASN35      -0.2716
     73  ND2       41.7290   13.5980   15.7950 N.am   35  ASN35      -0.0877
     74  N         43.0710   10.5640   19.5280 N.am   36  PRO36      -0.2716
     75  CA        42.3330   10.0770   20.7290 C.3    36  PRO36       0.1536
     76  C         40.8060   10.2960   20.6870 C.2    36  PRO36       0.2599
     77  O         40.0820    9.6280   21.4310 O.2    36  PRO36      -0.2715
     78  CB        42.9320   10.8990   21.8860 C.3    36  PRO36       0.0310
     79  CG        44.1990   11.4820   21.3720 C.3    36  PRO36       0.0237
     80  CD        44.0980   11.5710   19.8730 C.3    36  PRO36       0.0939
     81  N         40.3280   11.2120   19.8340 N.am   37  ASN37      -0.1959
     82  CA        38.8790   11.5130   19.7250 C.3    37  ASN37       0.1819
     83  C         38.0370   10.4300   19.0390 C.2    37  ASN37       0.2621
     84  O         36.8010   10.3750   19.2280 O.2    37  ASN37      -0.2715
     85  CB        38.6390   12.8280   18.9550 C.3    37  ASN37       0.1195
     86  CG        38.9950   14.0720   19.7510 C.2    37  ASN37       0.2630
     87  OD1       39.2180   15.1380   19.1670 O.2    37  ASN37      -0.2716
     88  ND2       39.0380   13.9640   21.0670 N.am   37  ASN37      -0.0877
     89  N         38.6820    9.6000   18.2120 N.am   38  TYR38      -0.1974
     90  CA        37.9580    8.6650   17.3450 C.3    38  TYR38       0.1639
     91  C         38.4190    7.2500   17.5710 C.2    38  TYR38       0.2290
     92  O         39.6150    7.0070   17.7160 O.2    38  TYR38      -0.2864
     93  CB        38.1130    9.0590   15.8580 C.3    38  TYR38       0.0560
     94  CG        37.8210   10.5210   15.6290 C.ar   38  TYR38      -0.0198
     95  CD1       36.5310   11.0210   15.8230 C.ar   38  TYR38      -0.0009
     96  CD2       38.8300   11.4130   15.2420 C.ar   38  TYR38      -0.0009
     97  CE1       36.2480   12.3560   15.6380 C.ar   38  TYR38       0.0417
     98  CE2       38.5590   12.7730   15.0490 C.ar   38  TYR38       0.0417
     99  CZ        37.2560   13.2350   15.2640 C.ar   38  TYR38       0.1957
    100  OH        36.9350   14.5600   15.0940 O.3    38  TYR38      -0.2866
    101  N         45.0440    5.7820   19.6880 N.3    48  ARG48      -0.1231
    102  CA        45.0570    6.8820   20.6680 C.3    48  ARG48       0.1694
    103  C         46.3660    7.6530   20.6130 C.2    48  ARG48       0.2592
    104  O         46.3810    8.8800   20.7520 O.2    48  ARG48      -0.2718
    105  CB        44.8220    6.3830   22.1060 C.3    48  ARG48       0.0321
    106  CG        43.4300    5.8570   22.3710 C.3    48  ARG48       0.0489
    107  CD        42.4390    6.9710   22.6710 C.3    48  ARG48       0.2205
    108  NE        42.8980    7.7280   23.8310 N.pl3  48  ARG48      -0.0865
    109  CZ        42.5350    7.5190   25.0990 C.cat  48  ARG48       0.5346
    110  NH1       41.7050    6.5590   25.4630 N.pl3  48  ARG48       0.1354
    111  NH2       43.0500    8.2990   26.0350 N.pl3  48  ARG48       0.1354
    112  N         47.4620    6.9210   20.4480 N.am   49  SER49      -0.1952
    113  CA        48.7840    7.5190   20.4170 C.3    49  SER49       0.1924
    114  C         49.7420    6.7180   19.5430 C.2    49  SER49       0.2314
    115  O         49.4710    5.5600   19.1850 O.2    49  SER49      -0.2863
    116  CB        49.3470    7.6890   21.8470 C.3    49  SER49       0.2116
    117  OG        49.9490    6.4970   22.3130 O.3    49  SER49      -0.2180
    118  N         49.6650   16.3480   11.1510 N.3    63  VAL63      -0.1231
    119  CA        48.8000   17.4670   10.7790 C.3    63  VAL63       0.1692
    120  C         48.0990   18.0610   12.0480 C.2    63  VAL63       0.2592
    121  O         46.8730   18.3080   12.0770 O.2    63  VAL63      -0.2718
    122  CB        47.8430   17.0610    9.6220 C.3    63  VAL63       0.0266
    123  CG1       46.7970   16.0630   10.0990 C.3    63  VAL63       0.0020
    124  CG2       47.1880   18.2930    8.9620 C.3    63  VAL63       0.0020
    125  N         48.9070   18.2800   13.0950 N.am   64  VAL64      -0.1966
    126  CA        48.4670   18.8640   14.3620 C.3    64  VAL64       0.1712
    127  C         49.2990   20.1380   14.6410 C.2    64  VAL64       0.2458
    128  O         50.3900   20.2790   14.0710 O.2    64  VAL64      -0.2730
    129  CB        48.6340   17.8670   15.5650 C.3    64  VAL64       0.0289
    130  CG1       47.7360   16.6720   15.3850 C.3    64  VAL64       0.0023
    131  CG2       50.1070   17.3880   15.7210 C.3    64  VAL64       0.0023
    132  N         48.7870   21.0460   15.5090 N.am   65  PRO65      -0.2716
    133  CA        49.5740   22.2520   15.8780 C.3    65  PRO65       0.1521
    134  C         50.9450   21.8700   16.4640 C.2    65  PRO65       0.2440
    135  O         51.0740   20.8150   17.0860 O.2    65  PRO65      -0.2731
    136  CB        48.7050   22.9270   16.9360 C.3    65  PRO65       0.0310
    137  CG        47.3280   22.4410   16.6870 C.3    65  PRO65       0.0237
    138  CD        47.4780   21.0270   16.1950 C.3    65  PRO65       0.0939
    139  N         51.9810   22.7080   16.2290 N.am   66  PRO66      -0.2727
    140  CA        53.3650   22.3900   16.6510 C.3    66  PRO66       0.1402
    141  C         53.5530   22.0620   18.1360 C.2    66  PRO66       0.2269
    142  O         54.4110   21.2440   18.4680 O.2    66  PRO66      -0.2865
    143  CB        54.1750   23.6460   16.2620 C.3    66  PRO66       0.0296
    144  CG        53.1950   24.6440   15.7450 C.3    66  PRO66       0.0237
    145  CD        51.8880   23.9810   15.4750 C.3    66  PRO66       0.0939
    146  N         51.4370   20.4580   20.0420 N.3    68  VAL68      -0.1245
    147  CA        51.0340   19.0440   20.0800 C.3    68  VAL68       0.1561
    148  C         52.0670   18.1550   19.3820 C.2    68  VAL68       0.2260
    149  O         52.4360   17.0990   19.8930 O.2    68  VAL68      -0.2867
    150  CB        49.6300   18.8420   19.4320 C.3    68  VAL68       0.0252
    151  CG1       49.2500   17.3280   19.3720 C.3    68  VAL68       0.0019
    152  CG2       48.5980   19.6120   20.1810 C.3    68  VAL68       0.0019
    153  N         55.2680   17.0960   21.4260 N.3    71  GLN71      -0.1231
    154  CA        54.9880   16.0110   22.3870 C.3    71  GLN71       0.1698
    155  C         54.9140   14.6670   21.6700 C.2    71  GLN71       0.2592
    156  O         55.5410   13.6710   22.0920 O.2    71  GLN71      -0.2718
    157  CB        53.6670   16.2500   23.1220 C.3    71  GLN71       0.0381
    158  CG        53.5340   17.5840   23.8650 C.3    71  GLN71       0.0905
    159  CD        52.0630   18.0070   24.0650 C.2    71  GLN71       0.2608
    160  OE1       51.1300   17.2110   23.8600 O.2    71  GLN71      -0.2717
    161  NE2       51.8570   19.2630   24.4590 N.am   71  GLN71      -0.0878
    162  N         54.1490   14.6420   20.5820 N.am   72  VAL72      -0.1980
    163  CA        53.9520   13.4170   19.8050 C.3    72  VAL72       0.1595
    164  C         55.2500   12.9370   19.1440 C.2    72  VAL72       0.2287
    165  O         55.5040   11.7320   19.0770 O.2    72  VAL72      -0.2864
    166  CB        52.8080   13.5800   18.7720 C.3    72  VAL72       0.0276
    167  CG1       52.6510   12.3260   17.9010 C.3    72  VAL72       0.0022
    168  CG2       51.5000   13.9120   19.4960 C.3    72  VAL72       0.0022
    169  N         53.3850   18.2600    7.8850 N.3    87  GLN87      -0.1231
    170  CA        52.6760   19.1120    6.9210 C.3    87  GLN87       0.1683
    171  C         52.9570   20.5630    7.2580 C.2    87  GLN87       0.2434
    172  O         53.1670   20.8830    8.4320 O.2    87  GLN87      -0.2733
    173  CB        51.1670   18.8610    6.9640 C.3    87  GLN87       0.0380
    174  CG        50.7600   17.5600    6.3370 C.3    87  GLN87       0.0905
    175  CD        50.9840   17.5210    4.8520 C.2    87  GLN87       0.2608
    176  OE1       52.0010   16.9950    4.3910 O.2    87  GLN87      -0.2717
    177  NE2       50.0340   18.0690    4.0760 N.am   87  GLN87      -0.0878
    178  N         53.0090   21.4410    6.2250 N.am   88  PRO88      -0.2718
    179  CA        53.1920   22.8680    6.5030 C.3    88  PRO88       0.1535
    180  C         52.1850   23.3670    7.5270 C.2    88  PRO88       0.2599
    181  O         50.9630   23.1440    7.3700 O.2    88  PRO88      -0.2715
    182  CB        52.9560   23.5210    5.1420 C.3    88  PRO88       0.0310
    183  CG        53.3920   22.5140    4.1630 C.3    88  PRO88       0.0237
    184  CD        52.9460   21.1750    4.7750 C.3    88  PRO88       0.0939
    185  N         52.6950   24.0200    8.5700 N.am   89  GLY89      -0.1941
    186  CA        51.8850   24.5440    9.6700 C.3    89  GLY89       0.2014
    187  C         52.0500   23.7490   10.9470 C.2    89  GLY89       0.2638
    188  O         51.7460   24.2430   12.0350 O.2    89  GLY89      -0.2714
    189  N         52.5540   22.5170   10.8030 N.am   90  ALA90      -0.1977
    190  CA        52.7660   21.5870   11.9110 C.3    90  ALA90       0.1597
    191  C         54.2180   21.6560   12.4350 C.2    90  ALA90       0.2287
    192  O         54.5190   21.1660   13.5280 O.2    90  ALA90      -0.2864
    193  CB        52.4400   20.1540   11.4720 C.3    90  ALA90       0.0319
    194  N         54.3340   19.1160    1.0060 N.3   111  CYS111     -0.1235
    195  CA        52.9580   18.6780    1.0460 C.3   111  CYS111      0.1677
    196  C         52.8310   17.1820    0.6720 C.2   111  CYS111      0.2270
    197  O         53.0750   16.8220   -0.4600 O.2   111  CYS111     -0.2867
    198  CB        52.1580   19.5370    0.0740 C.3   111  CYS111      0.0956
    199  SG        52.0410   21.2740    0.5580 S.3   111  CYS111     -0.0801
    200  N         50.8400   16.2860   -2.5570 N.3   113  VAL113     -0.1245
    201  CA        51.6630   16.6650   -3.7030 C.3   113  VAL113      0.1561
    202  C         52.7640   15.6270   -3.9330 C.2   113  VAL113      0.2260
    203  O         52.9150   15.1010   -5.0510 O.2   113  VAL113     -0.2867
    204  CB        52.2870   18.0720   -3.5230 C.3   113  VAL113      0.0252
    205  CG1       53.3220   18.3650   -4.6430 C.3   113  VAL113      0.0019
    206  CG2       51.1930   19.1350   -3.5020 C.3   113  VAL113      0.0019
@<TRIPOS>BOND
     1   203   202    2
     2   205   204    1
     3   202   201    1
     4   201   204    1
     5   201   200    1
     6   204   206    1
     7   197   196    2
     8   198   199    1
     9   198   195    1
    10   196   195    1
    11   194   195    1
    12    46    45    1
    13    54    53    2
    14    43    45   ar
    15    43    41   ar
    16    45    44   ar
    17    52    53    1
    18    52    51    1
    19    52    55    1
    20    41    40   ar
    21   177   175   am
    22   183   184    1
    23   183   182    1
    24    56    55    1
    25    56    58    1
    26    44    42   ar
    27   176   175    2
    28    57    55    1
    29   184   178    1
    30   175   174    1
    31   182   179    1
    32    40    42   ar
    33    40    39    1
    34    38    37    2
    35   178   179    1
    36   178   171   am
    37   174   173    1
    38    39    36    1
    39    36    37    1
    40    36    35    1
    41   179   180    1
    42    29    28    2
    43   170   173    1
    44   170   171    1
    45   170   169    1
    46    37    47   am
    47    35    28   am
    48   171   172    2
    49    28    27    1
    50   181   180    2
    51   180   185   am
    52    26    27    1
    53    50    49    2
    54    49    48    1
    55    27    30    1
    56    47    48    1
    57    21    20    2
    58   185   186    1
    59    20    19    1
    60   124   122    1
    61    24    23    2
    62    30    31    1
    63   122   123    1
    64   122   119    1
    65   186   187    1
    66    15    14    2
    67    19    18    1
    68    19    22    1
    69    23    22    1
    70    23    25   am
    71    31    32    1
    72   119   118    1
    73   119   120    1
    74   189   187   am
    75   189   190    1
    76    14    13    1
    77   187   188    2
    78    12    13    1
    79    32    33    1
    80   193   190    1
    81    16    13    1
    82    16    17    1
    83   190   191    1
    84   120   121    2
    85   120   125   am
    86    11    10    2
    87     1     2    1
    88    33    34    1
    89   191   192    2
    90    10     9    1
    91     4     3    2
    92   125   126    1
    93     3     2    1
    94     3     8   am
    95     2     5    1
    96     9     8    1
    97    59    60    1
    98   128   127    2
    99     5     7    1
   100     5     6    1
   101   126   127    1
   102   126   129    1
   103   127   132   am
   104    65    63    1
   105    98    96   ar
   106    98    99   ar
   107    60    63    1
   108    60    61    1
   109   100    99    1
   110    62    61    2
   111    96    94   ar
   112    63    64    1
   113    99    97   ar
   114   130   129    1
   115   145   144    1
   116   145   139    1
   117   132   133    1
   118   132   138    1
   119   129   131    1
   120    61    66   am
   121    94    95   ar
   122    94    93    1
   123    97    95   ar
   124   144   143    1
   125    73    71   am
   126    93    90    1
   127   133   134    1
   128   133   136    1
   129    70    71    1
   130    70    67    1
   131   138   137    1
   132   139   134   am
   133   139   140    1
   134   143   140    1
   135   134   135    2
   136    66    67    1
   137   140   141    1
   138    71    72    2
   139   137   136    1
   140    67    68    1
   141    90    91    1
   142    90    89    1
   143    91    92    2
   144   167   166    1
   145    69    68    2
   146   141   142    2
   147    89    83   am
   148    68    74   am
   149   166   168    1
   150   166   163    1
   151    85    82    1
   152    85    86    1
   153    83    84    2
   154    83    82    1
   155   165   164    2
   156   164   163    1
   157    87    86    2
   158   115   114    2
   159   151   150    1
   160   148   149    2
   161   148   147    1
   162   150   147    1
   163   150   152    1
   164    74    80    1
   165    74    75    1
   166   114   113    1
   167   101   102    1
   168    82    81    1
   169    86    88   am
   170   163   162    1
   171    81    76   am
   172    80    79    1
   173   146   147    1
   174   113   112    1
   175   113   116    1
   176   112   103   am
   177   162   155   am
   178   103   102    1
   179   103   104    2
   180   102   105    1
   181    76    75    1
   182    76    77    2
   183    75    78    1
   184    79    78    1
   185   153   154    1
   186   155   156    2
   187   155   154    1
   188   116   117    1
   189   105   106    1
   190   106   107    1
   191   154   157    1
   192   107   108    1
   193   157   158    1
   194   108   109    2
   195   160   159    2
   196   158   159    1
   197   159   161   am
   198   109   110    1
   199   109   111    1
