@<TRIPOS>MOLECULE
tmp/1y89A00.pdb
 86 82 0 0 0
SMALL
GASTEIGER

@<TRIPOS>ATOM
      1  N          7.8670   46.2320    8.3400 N.3     1  ILE1       -0.1245
      2  CA         6.9010   45.9200    9.3760 C.3     1  ILE1        0.1561
      3  C          5.4720   46.1160    8.8500 C.2     1  ILE1        0.2260
      4  O          5.1740   47.1240    8.1990 O.2     1  ILE1       -0.2867
      5  CB         7.1770   46.6970   10.6990 C.3     1  ILE1        0.0252
      6  CG1        6.1320   46.3430   11.7740 C.3     1  ILE1        0.0019
      7  CG2        7.1670   48.2050   10.4780 C.3     1  ILE1        0.0019
      8  CD1        6.6740   46.4650   13.2120 C.3     1  ILE1        0.0001
      9  N          1.4440   45.9810   10.0860 N.3     3  HIS3       -0.1241
     10  CA         0.4330   45.9080   11.1450 C.3     3  HIS3        0.1621
     11  C         -0.9270   45.7300   10.4890 C.2     3  HIS3        0.2264
     12  O         -1.3030   46.5050    9.5630 O.2     3  HIS3       -0.2867
     13  CB         0.3260   47.2200   11.9310 C.3     3  HIS3        0.0745
     14  CG         1.5930   47.6780   12.5860 C.ar    3  HIS3        0.0817
     15  ND1        2.7090   48.0700   11.8740 N.ar    3  HIS3       -0.2268
     16  CD2        1.8810   47.9100   13.8900 C.ar    3  HIS3        0.1154
     17  CE1        3.6470   48.4770   12.7140 C.ar    3  HIS3        0.1986
     18  NE2        3.1680   48.3940   13.9420 N.ar    3  HIS3       -0.2212
     19  N         -5.0850   45.3260   11.4010 N.3     5  ILE5       -0.1245
     20  CA        -6.1860   45.3730   12.3920 C.3     5  ILE5        0.1561
     21  C         -7.4500   44.8660   11.6970 C.2     5  ILE5        0.2260
     22  O         -7.8860   45.4400   10.7060 O.2     5  ILE5       -0.2867
     23  CB        -6.3890   46.7970   12.9680 C.3     5  ILE5        0.0252
     24  CG1       -5.0620   47.3560   13.5670 C.3     5  ILE5        0.0019
     25  CG2       -7.5780   46.8430   14.0020 C.3     5  ILE5        0.0019
     26  CD1       -5.1440   48.8270   13.9320 C.3     5  ILE5        0.0001
     27  N         -0.3660   46.2600   23.9520 N.3   195  VAL195     -0.1245
     28  CA        -0.3370   46.7950   22.5690 C.3   195  VAL195      0.1561
     29  C         -0.0170   48.3000   22.5830 C.2   195  VAL195      0.2260
     30  O          0.8900   48.7510   21.8650 O.2   195  VAL195     -0.2867
     31  CB        -1.6580   46.4880   21.7840 C.3   195  VAL195      0.0252
     32  CG1       -1.7590   47.3430   20.4690 C.3   195  VAL195      0.0019
     33  CG2       -1.7180   45.0120   21.4650 C.3   195  VAL195      0.0019
     34  N          3.8010   48.8930   23.6440 N.3   198  ILE198     -0.1231
     35  CA         4.7150   48.5510   22.5500 C.3   198  ILE198      0.1692
     36  C          4.5560   49.5290   21.3690 C.2   198  ILE198      0.2592
     37  O          5.5460   49.9580   20.7530 O.2   198  ILE198     -0.2718
     38  CB         4.4910   47.0730   22.1030 C.3   198  ILE198      0.0266
     39  CG1        4.7360   46.1240   23.2950 C.3   198  ILE198      0.0019
     40  CG2        5.3310   46.7130   20.8240 C.3   198  ILE198      0.0020
     41  CD1        4.4230   44.6830   22.9840 C.3   198  ILE198      0.0001
     42  N          3.3160   49.8790   21.0510 N.am  199  HIS199     -0.1976
     43  CA         3.0560   50.8100   19.9470 C.3   199  HIS199      0.1656
     44  C          3.6960   52.1890   20.0930 C.2   199  HIS199      0.2291
     45  O          4.1130   52.7940   19.1010 O.2   199  HIS199     -0.2864
     46  CB         1.5600   50.9630   19.7100 C.3   199  HIS199      0.0771
     47  CG         1.2370   51.4810   18.3490 C.ar  199  HIS199      0.0820
     48  ND1        1.3840   50.7100   17.2130 N.ar  199  HIS199     -0.2267
     49  CD2        0.7880   52.6850   17.9350 C.ar  199  HIS199      0.1154
     50  CE1        1.0530   51.4290   16.1560 C.ar  199  HIS199      0.1986
     51  NE2        0.6780   52.6250   16.5660 N.ar  199  HIS199     -0.2212
     52  N          2.2450   42.4410   13.0330 N.3   222  TRP222     -0.1241
     53  CA         1.3680   42.4660   14.1780 C.3   222  TRP222      0.1605
     54  C         -0.0640   42.2970   13.6710 C.2   222  TRP222      0.2264
     55  O         -0.5520   43.1260   12.8820 O.2   222  TRP222     -0.2867
     56  CB         1.5180   43.8070   14.9260 C.3   222  TRP222      0.0550
     57  CG         2.8880   43.9190   15.5630 C.ar  222  TRP222      0.0003
     58  CD1        4.0490   44.2660   14.9620 C.ar  222  TRP222      0.0946
     59  CD2        3.2080   43.5840   16.9050 C.ar  222  TRP222      0.0152
     60  NE1        5.0940   44.1990   15.8720 N.ar  222  TRP222     -0.2442
     61  CE2        4.5910   43.7880   17.0740 C.ar  222  TRP222      0.0810
     62  CE3        2.4470   43.1580   17.9970 C.ar  222  TRP222      0.0012
     63  CZ2        5.2390   43.5700   18.2930 C.ar  222  TRP222      0.0191
     64  CZ3        3.1010   42.9420   19.2220 C.ar  222  TRP222      0.0001
     65  CH2        4.4760   43.1400   19.3460 C.ar  222  TRP222      0.0015
     66  N         -3.8390   42.2730   14.8440 N.3   224  LEU224     -0.1245
     67  CA        -4.6760   42.6050   15.9910 C.3   224  LEU224      0.1561
     68  C         -6.1350   42.5280   15.5800 C.2   224  LEU224      0.2260
     69  O         -6.4570   42.6650   14.3950 O.2   224  LEU224     -0.2867
     70  CB        -4.4140   44.0520   16.4560 C.3   224  LEU224      0.0270
     71  CG        -2.9820   44.5440   16.7350 C.3   224  LEU224      0.0019
     72  CD1       -3.0600   45.9400   17.3260 C.3   224  LEU224      0.0001
     73  CD2       -2.1560   43.6630   17.6120 C.3   224  LEU224      0.0001
     74  N         -5.1140   52.2180   20.5350 N.3   232  ILE232     -0.1231
     75  CA        -4.2640   52.8560   19.5230 C.3   232  ILE232      0.1692
     76  C         -4.9960   53.1830   18.2210 C.2   232  ILE232      0.2591
     77  O         -4.4750   53.9020   17.3740 O.2   232  ILE232     -0.2718
     78  CB        -2.9990   52.0300   19.2180 C.3   232  ILE232      0.0266
     79  CG1       -3.3540   50.6570   18.6210 C.3   232  ILE232      0.0019
     80  CG2       -2.1560   51.8590   20.4960 C.3   232  ILE232      0.0020
     81  CD1       -2.1410   49.9510   17.9150 C.3   232  ILE232      0.0001
     82  N         -6.1860   52.6180   18.0550 N.am  233  ALA233     -0.1980
     83  CA        -6.9640   52.8760   16.8720 C.3   233  ALA233      0.1597
     84  C         -8.4050   53.0560   17.2770 C.2   233  ALA233      0.2287
     85  O         -9.0660   53.8580   16.6470 O.2   233  ALA233     -0.2864
     86  CB        -6.8230   51.7620   15.8640 C.3   233  ALA233      0.0319
@<TRIPOS>BOND
     1     4     3    2
     2     1     2    1
     3     3     2    1
     4     2     5    1
     5    12    11    2
     6     9    10    1
     7     7     5    1
     8    11    10    1
     9     5     6    1
    10    22    21    2
    11    10    13    1
    12    19    20    1
    13    21    20    1
    14     6     8    1
    15    15    14   ar
    16    15    17   ar
    17    13    14    1
    18    20    23    1
    19    14    16   ar
    20    17    18   ar
    21    55    54    2
    22    23    24    1
    23    23    25    1
    24    52    53    1
    25    24    26    1
    26    54    53    1
    27    16    18   ar
    28    53    56    1
    29    69    68    2
    30    66    67    1
    31    56    57    1
    32    58    57   ar
    33    58    60   ar
    34    57    59   ar
    35    68    67    1
    36    86    83    1
    37    60    61   ar
    38    67    70    1
    39    50    51   ar
    40    50    48   ar
    41    70    71    1
    42    51    49   ar
    43    85    84    2
    44    71    72    1
    45    71    73    1
    46    83    84    1
    47    83    82    1
    48    59    61   ar
    49    59    62   ar
    50    61    63   ar
    51    48    47   ar
    52    77    76    2
    53    81    79    1
    54    49    47   ar
    55    62    64   ar
    56    82    76   am
    57    76    75    1
    58    63    65   ar
    59    47    46    1
    60    79    78    1
    61    45    44    2
    62    78    75    1
    63    78    80    1
    64    64    65   ar
    65    75    74    1
    66    46    43    1
    67    43    44    1
    68    43    42    1
    69    32    31    1
    70    37    36    2
    71    40    38    1
    72    42    36   am
    73    36    35    1
    74    33    31    1
    75    31    28    1
    76    30    29    2
    77    38    35    1
    78    38    39    1
    79    35    34    1
    80    28    29    1
    81    28    27    1
    82    41    39    1
