@<TRIPOS>MOLECULE
tmp/1y8jA03.pdb
 187 180 0 0 0
SMALL
GASTEIGER

@<TRIPOS>ATOM
      1  N        -15.9490   41.8270   27.5380 N.3    49  ARG49      -0.1245
      2  CA       -16.2060   43.2420   27.3700 C.3    49  ARG49       0.1563
      3  C        -17.4970   43.5630   28.1020 C.2    49  ARG49       0.2260
      4  O        -18.4220   42.7630   28.1170 O.2    49  ARG49      -0.2867
      5  CB       -16.3070   43.5820   25.8810 C.3    49  ARG49       0.0307
      6  CG       -16.7980   44.9810   25.5740 C.3    49  ARG49       0.0489
      7  CD       -17.1140   45.2170   24.0840 C.3    49  ARG49       0.2205
      8  NE       -18.3840   44.6050   23.7190 N.pl3  49  ARG49      -0.0865
      9  CZ       -18.7780   44.3510   22.4760 C.cat  49  ARG49       0.5346
     10  NH1      -18.0030   44.6490   21.4510 N.pl3  49  ARG49       0.1354
     11  NH2      -19.9510   43.7800   22.2630 N.pl3  49  ARG49       0.1354
     12  N        -23.9890   48.6130   25.9990 N.3    53  PHE53      -0.1241
     13  CA       -24.4370   47.8010   24.8910 C.3    53  PHE53       0.1605
     14  C        -24.4970   46.3270   25.2790 C.2    53  PHE53       0.2264
     15  O        -25.4920   45.6400   25.0270 O.2    53  PHE53      -0.2867
     16  CB       -23.4740   48.0090   23.7290 C.3    53  PHE53       0.0534
     17  CG       -23.9430   47.4310   22.4370 C.ar   53  PHE53      -0.0203
     18  CD1      -24.9160   48.0700   21.6950 C.ar   53  PHE53      -0.0042
     19  CD2      -23.3960   46.2690   21.9600 C.ar   53  PHE53      -0.0042
     20  CE1      -25.3560   47.5450   20.5180 C.ar   53  PHE53      -0.0003
     21  CE2      -23.8190   45.7400   20.7730 C.ar   53  PHE53      -0.0003
     22  CZ       -24.8070   46.3810   20.0510 C.ar   53  PHE53      -0.0000
     23  N        -27.6760   43.3140   26.0560 N.3    57  ARG57      -0.1245
     24  CA       -27.6750   41.9350   25.6080 C.3    57  ARG57       0.1563
     25  C        -27.8680   40.9780   26.7790 C.2    57  ARG57       0.2260
     26  O        -28.4800   39.9200   26.6170 O.2    57  ARG57      -0.2867
     27  CB       -26.3910   41.6110   24.8550 C.3    57  ARG57       0.0307
     28  CG       -26.4350   41.9740   23.3830 C.3    57  ARG57       0.0489
     29  CD       -25.0790   41.8920   22.7020 C.3    57  ARG57       0.2205
     30  NE       -25.0890   42.3550   21.3150 N.pl3  57  ARG57      -0.0865
     31  CZ       -24.0240   42.2960   20.5180 C.cat  57  ARG57       0.5346
     32  NH1      -22.8820   41.7980   20.9810 N.pl3  57  ARG57       0.1354
     33  NH2      -24.0910   42.7350   19.2660 N.pl3  57  ARG57       0.1354
     34  N        -28.5850   44.5490   17.8860 N.3   489  ASN489     -0.1225
     35  CA       -27.6990   44.9040   16.7870 C.3   489  ASN489      0.1785
     36  C        -28.5250   45.4870   15.6450 C.2   489  ASN489      0.2597
     37  O        -29.7550   45.5320   15.7180 O.2   489  ASN489     -0.2718
     38  CB       -26.9410   43.6660   16.2870 C.3   489  ASN489      0.1169
     39  CG       -25.5250   43.9840   15.8410 C.2   489  ASN489      0.2627
     40  OD1      -25.2310   45.1020   15.4400 O.2   489  ASN489     -0.2716
     41  ND2      -24.6390   42.9960   15.9250 N.am  489  ASN489     -0.0877
     42  N        -27.8400   45.9250   14.5960 N.am  490  ALA490     -0.1966
     43  CA       -28.4700   46.2750   13.3320 C.3   490  ALA490      0.1728
     44  C        -27.5220   45.9420   12.1730 C.2   490  ALA490      0.2616
     45  O        -26.3460   45.6930   12.3840 O.2   490  ALA490     -0.2715
     46  CB       -28.8310   47.7640   13.3160 C.3   490  ALA490      0.0334
     47  N        -28.0390   45.9320   10.9540 N.am  491  PHE491     -0.1974
     48  CA       -27.3540   45.2820    9.8480 C.3   491  PHE491      0.1639
     49  C        -27.5460   46.0200    8.5280 C.2   491  PHE491      0.2290
     50  O        -28.5780   46.6330    8.2990 O.2   491  PHE491     -0.2864
     51  CB       -27.8280   43.8360    9.7090 C.3   491  PHE491      0.0560
     52  CG       -27.6640   43.0330   10.9550 C.ar  491  PHE491     -0.0200
     53  CD1      -26.5160   42.2890   11.1690 C.ar  491  PHE491     -0.0042
     54  CD2      -28.6530   43.0290   11.9280 C.ar  491  PHE491     -0.0042
     55  CE1      -26.3630   41.5470   12.3330 C.ar  491  PHE491     -0.0003
     56  CE2      -28.5010   42.2920   13.0870 C.ar  491  PHE491     -0.0003
     57  CZ       -27.3600   41.5460   13.2880 C.ar  491  PHE491     -0.0000
     58  N        -32.6610   46.0830   19.4250 N.3   505  ILE505     -0.1245
     59  CA       -31.9140   47.3450   19.5180 C.3   505  ILE505      0.1561
     60  C        -32.8480   48.5550   19.6580 C.2   505  ILE505      0.2260
     61  O        -32.3890   49.6810   19.8610 O.2   505  ILE505     -0.2867
     62  CB       -30.9560   47.5190   18.3130 C.3   505  ILE505      0.0252
     63  CG1      -29.8370   48.5160   18.6420 C.3   505  ILE505      0.0019
     64  CG2      -31.7260   47.9840   17.0900 C.3   505  ILE505      0.0019
     65  CD1      -28.4740   48.1740   18.0290 C.3   505  ILE505      0.0001
     66  N        -31.1550   53.5870   22.9620 N.3   510  PHE510     -0.1241
     67  CA       -31.2660   53.8890   21.5310 C.3   510  PHE510      0.1605
     68  C        -32.6070   54.5010   21.1870 C.2   510  PHE510      0.2264
     69  O        -32.6750   55.5190   20.4980 O.2   510  PHE510     -0.2867
     70  CB       -31.1110   52.6290   20.6860 C.3   510  PHE510      0.0534
     71  CG       -29.7610   51.9900   20.7880 C.ar  510  PHE510     -0.0203
     72  CD1      -28.6980   52.4590   20.0400 C.ar  510  PHE510     -0.0042
     73  CD2      -29.5590   50.9180   21.6220 C.ar  510  PHE510     -0.0042
     74  CE1      -27.4690   51.8630   20.1320 C.ar  510  PHE510     -0.0003
     75  CE2      -28.3270   50.3260   21.7110 C.ar  510  PHE510     -0.0003
     76  CZ       -27.2800   50.8050   20.9810 C.ar  510  PHE510     -0.0000
     77  N        -28.6630   57.9120   14.9000 N.3   526  MET526     -0.1230
     78  CA       -27.2670   57.6860   14.5590 C.3   526  MET526      0.1702
     79  C        -27.0840   56.2740   14.0030 C.2   526  MET526      0.2592
     80  O        -26.3520   56.0730   13.0350 O.2   526  MET526     -0.2718
     81  CB       -26.4000   57.9080   15.7960 C.3   526  MET526      0.0401
     82  CG       -24.9080   57.8150   15.5560 C.3   526  MET526      0.0596
     83  SD       -24.3480   56.1140   15.5920 S.3   526  MET526     -0.1393
     84  CE       -24.8080   55.6420   17.2600 C.3   526  MET526      0.0692
     85  N        -27.7820   55.3010   14.5890 N.am  527  VAL527     -0.1980
     86  CA       -27.6370   53.9050   14.1780 C.3   527  VAL527      0.1595
     87  C        -28.1870   53.6620   12.7600 C.2   527  VAL527      0.2287
     88  O        -27.5490   53.0170   11.9380 O.2   527  VAL527     -0.2864
     89  CB       -28.3350   52.9580   15.1780 C.3   527  VAL527      0.0276
     90  CG1      -28.3320   51.5230   14.6480 C.3   527  VAL527      0.0022
     91  CG2      -27.6630   53.0340   16.5400 C.3   527  VAL527      0.0022
     92  N        -25.6480   55.1010   10.3770 N.3   530  HIS530     -0.1226
     93  CA       -24.5980   54.0900   10.3330 C.3   530  HIS530      0.1752
     94  C        -24.9510   53.0860    9.2570 C.2   530  HIS530      0.2595
     95  O        -24.1730   52.8450    8.3310 O.2   530  HIS530     -0.2718
     96  CB       -24.4570   53.4140   11.7130 C.3   530  HIS530      0.0759
     97  CG       -23.3470   52.4080   11.8030 C.ar  530  HIS530      0.0818
     98  ND1      -22.0300   52.7620   11.9860 N.ar  530  HIS530     -0.2268
     99  CD2      -23.3710   51.0540   11.7840 C.ar  530  HIS530      0.1154
    100  CE1      -21.2850   51.6710   12.0250 C.ar  530  HIS530      0.1986
    101  NE2      -22.0780   50.6190   11.9230 N.ar  530  HIS530     -0.2212
    102  N        -26.1300   52.4890    9.3730 N.am  531  GLU531     -0.1979
    103  CA       -26.4500   51.3180    8.5610 C.3   531  GLU531      0.1602
    104  C        -26.5900   51.7190    7.0960 C.2   531  GLU531      0.2287
    105  O        -26.1580   50.9960    6.2070 O.2   531  GLU531     -0.2864
    106  CB       -27.7490   50.6690    9.0420 C.3   531  GLU531      0.0415
    107  CG       -27.6230   49.9810   10.3780 C.3   531  GLU531      0.1163
    108  CD       -26.3870   49.1100   10.4650 C.2   531  GLU531      0.3649
    109  OE1      -26.0740   48.4290    9.4600 O.co2 531  GLU531     -0.2457
    110  OE2      -25.7350   49.1060   11.5370 O.co2 531  GLU531     -0.2457
    111  N        -23.3360   52.4020    5.3630 N.3   534  HIS534     -0.1241
    112  CA       -22.5270   51.2270    5.0700 C.3   534  HIS534      0.1621
    113  C        -22.6960   50.8750    3.6070 C.2   534  HIS534      0.2264
    114  O        -21.8560   50.1880    3.0270 O.2   534  HIS534     -0.2867
    115  CB       -22.9730   49.9970    5.8660 C.3   534  HIS534      0.0745
    116  CG       -22.4090   49.8930    7.2520 C.ar  534  HIS534      0.0817
    117  ND1      -21.0580   49.7970    7.4940 N.ar  534  HIS534     -0.2268
    118  CD2      -23.0100   49.7820    8.4580 C.ar  534  HIS534      0.1154
    119  CE1      -20.8470   49.6610    8.7890 C.ar  534  HIS534      0.1986
    120  NE2      -22.0160   49.6490    9.3970 N.ar  534  HIS534     -0.2212
    121  N        -16.4150   50.7270    9.3350 N.3   593  GLU593     -0.1245
    122  CA       -17.2080   51.0500   10.5070 C.3   593  GLU593      0.1567
    123  C        -17.0340   52.5090   10.8950 C.2   593  GLU593      0.2260
    124  O        -17.9740   53.1630   11.3180 O.2   593  GLU593     -0.2867
    125  CB       -16.8340   50.1300   11.6680 C.3   593  GLU593      0.0388
    126  CG       -17.2450   48.6920   11.4180 C.3   593  GLU593      0.1160
    127  CD       -18.7540   48.5120   11.2560 C.2   593  GLU593      0.3649
    128  OE1      -19.5440   49.3360   11.7550 O.co2 593  GLU593     -0.2457
    129  OE2      -19.1610   47.5120   10.6560 O.co2 593  GLU593     -0.2457
    130  N        -19.8630   55.4340   11.1690 N.3   597  ASP597     -0.1239
    131  CA       -20.1120   56.2350   12.3660 C.3   597  ASP597      0.1674
    132  C        -20.1430   57.7350   12.1020 C.2   597  ASP597      0.2266
    133  O        -21.0280   58.4410   12.5850 O.2   597  ASP597     -0.2867
    134  CB       -19.0430   55.9520   13.4220 C.3   597  ASP597      0.1410
    135  CG       -19.2440   54.6360   14.1050 C.2   597  ASP597      0.3668
    136  OD1      -18.2970   54.1630   14.7570 O.co2 597  ASP597     -0.2456
    137  OD2      -20.3120   54.0020   14.0260 O.co2 597  ASP597     -0.2456
    138  N        -24.0490   55.2010   24.5630 N.3   639  VAL639     -0.1231
    139  CA       -24.2020   53.8980   23.9380 C.3   639  VAL639      0.1692
    140  C        -22.9420   53.0620   24.1300 C.2   639  VAL639      0.2592
    141  O        -22.9980   51.8320   24.1390 O.2   639  VAL639     -0.2718
    142  CB       -24.5140   54.0200   22.4470 C.3   639  VAL639      0.0266
    143  CG1      -24.1250   52.7570   21.7130 C.3   639  VAL639      0.0020
    144  CG2      -25.9860   54.3290   22.2380 C.3   639  VAL639      0.0020
    145  N        -21.8010   53.7160   24.2970 N.am  640  TRP640     -0.1976
    146  CA       -20.5420   52.9970   24.2560 C.3   640  TRP640      0.1640
    147  C        -19.7540   53.0950   25.5480 C.2   640  TRP640      0.2290
    148  O        -18.6060   52.6510   25.5910 O.2   640  TRP640     -0.2864
    149  CB       -19.6860   53.4760   23.0720 C.3   640  TRP640      0.0576
    150  CG       -20.2500   53.0410   21.7940 C.ar  640  TRP640      0.0006
    151  CD1      -20.6770   53.8280   20.7740 C.ar  640  TRP640      0.0946
    152  CD2      -20.5080   51.6920   21.3980 C.ar  640  TRP640      0.0152
    153  NE1      -21.1680   53.0510   19.7540 N.ar  640  TRP640     -0.2442
    154  CE2      -21.0740   51.7340   20.1140 C.ar  640  TRP640      0.0810
    155  CE3      -20.3120   50.4430   22.0010 C.ar  640  TRP640      0.0012
    156  CZ2      -21.4500   50.5880   19.4270 C.ar  640  TRP640      0.0191
    157  CZ3      -20.6820   49.3030   21.3110 C.ar  640  TRP640      0.0001
    158  CH2      -21.2510   49.3850   20.0450 C.ar  640  TRP640      0.0015
    159  N        -11.9830   42.7020   15.4060 N.3   656  ASP656     -0.1239
    160  CA       -13.1990   43.4970   15.3280 C.3   656  ASP656      0.1674
    161  C        -13.1340   44.4700   14.1550 C.2   656  ASP656      0.2266
    162  O        -12.1910   45.2320   14.0280 O.2   656  ASP656     -0.2867
    163  CB       -13.4060   44.2650   16.6200 C.3   656  ASP656      0.1410
    164  CG       -14.8600   44.5420   16.9000 C.2   656  ASP656      0.3668
    165  OD1      -15.6250   44.7520   15.9380 O.co2 656  ASP656     -0.2456
    166  OD2      -15.3220   44.5700   18.0580 O.co2 656  ASP656     -0.2456
    167  N        -15.1620   46.8740   14.1070 N.3   658  HIS658     -0.1241
    168  CA       -15.4040   48.1540   14.7910 C.3   658  HIS658      0.1621
    169  C        -14.1640   48.6570   15.5200 C.2   658  HIS658      0.2264
    170  O        -13.3470   47.8670   15.9840 O.2   658  HIS658     -0.2867
    171  CB       -16.5650   48.0300   15.7930 C.3   658  HIS658      0.0745
    172  CG       -17.7550   47.3000   15.2530 C.ar  658  HIS658      0.0817
    173  ND1      -17.8080   45.9290   15.1650 N.ar  658  HIS658     -0.2268
    174  CD2      -18.9400   47.7530   14.7750 C.ar  658  HIS658      0.1154
    175  CE1      -18.9670   45.5680   14.6390 C.ar  658  HIS658      0.1986
    176  NE2      -19.6720   46.6560   14.3940 N.ar  658  HIS658     -0.2212
    177  N        -14.5940   55.3070   19.1550 N.3   664  ARG664     -0.1245
    178  CA       -15.7130   55.7060   18.3190 C.3   664  ARG664      0.1563
    179  C        -16.2910   57.0490   18.7600 C.2   664  ARG664      0.2260
    180  O        -16.4690   57.9490   17.9500 O.2   664  ARG664     -0.2867
    181  CB       -16.7880   54.6310   18.3170 C.3   664  ARG664      0.0307
    182  CG       -16.2880   53.3040   17.8030 C.3   664  ARG664      0.0489
    183  CD       -17.3130   52.2130   17.8560 C.3   664  ARG664      0.2205
    184  NE       -18.3190   52.3930   16.8290 N.pl3 664  ARG664     -0.0865
    185  CZ       -19.1140   51.4310   16.4180 C.cat 664  ARG664      0.5346
    186  NH1      -19.0190   50.2210   16.9550 N.pl3 664  ARG664      0.1354
    187  NH2      -20.0130   51.6790   15.4800 N.pl3 664  ARG664      0.1354
@<TRIPOS>BOND
     1   114   113    2
     2   113   112    1
     3   112   111    1
     4   112   115    1
     5   115   116    1
     6   105   104    2
     7   104   103    1
     8   116   117   ar
     9   116   118   ar
    10   117   119   ar
    11    50    49    2
    12    95    94    2
    13   118   120   ar
    14    49    48    1
    15   103   106    1
    16   103   102    1
    17   119   120   ar
    18   106   107    1
    19    94   102   am
    20    94    93    1
    21   121   122    1
    22   109   108   ar
    23    51    48    1
    24    51    52    1
    25    48    47    1
    26    93    92    1
    27    93    96    1
    28   107   108    1
    29   108   110   ar
    30   122   123    1
    31   122   125    1
    32   129   127   ar
    33   123   124    2
    34    47    44   am
    35    52    53   ar
    36    52    54   ar
    37   130   131    1
    38    53    55   ar
    39   127   126    1
    40   127   128   ar
    41   126   125    1
    42    96    97    1
    43    99    97   ar
    44    99   101   ar
    45    97    98   ar
    46   101   100   ar
    47    54    56   ar
    48    88    87    2
    49    98   100   ar
    50   132   131    1
    51   132   133    2
    52    44    45    2
    53    44    43    1
    54    55    57   ar
    55   131   134    1
    56    87    86    1
    57    80    79    2
    58    56    57   ar
    59    46    43    1
    60    43    42    1
    61   134   135    1
    62    79    78    1
    63    79    85   am
    64   137   135   ar
    65   162   161    2
    66   135   136   ar
    67   167   168    1
    68   161   160    1
    69    86    85    1
    70    86    89    1
    71   176   175   ar
    72   176   174   ar
    73    78    77    1
    74    78    81    1
    75    42    36   am
    76   175   173   ar
    77    90    89    1
    78   174   172   ar
    79   168   169    1
    80   168   171    1
    81   173   172   ar
    82    89    91    1
    83   172   171    1
    84   160   159    1
    85   160   163    1
    86    40    39    2
    87   187   185    1
    88   169   170    2
    89    82    83    1
    90    82    81    1
    91    83    84    1
    92    36    37    2
    93    36    35    1
    94    39    41   am
    95    39    38    1
    96   165   164   ar
    97    38    35    1
    98   185   184    2
    99   185   186    1
   100   163   164    1
   101    35    34    1
   102   184   183    1
   103   164   166   ar
   104    64    62    1
   105   182   183    1
   106   182   181    1
   107   180   179    2
   108    65    63    1
   109    62    63    1
   110    62    59    1
   111   181   178    1
   112   178   179    1
   113   178   177    1
   114    33    31    1
   115    58    59    1
   116   156   158   ar
   117   156   154   ar
   118    59    60    1
   119    60    61    2
   120   153   154   ar
   121   153   151   ar
   122    72    74   ar
   123    72    71   ar
   124   158   157   ar
   125    22    20   ar
   126    22    21   ar
   127   154   152   ar
   128    74    76   ar
   129    69    68    2
   130    31    32    1
   131    31    30    2
   132    20    18   ar
   133    70    71    1
   134    70    67    1
   135    21    19   ar
   136   151   150   ar
   137    71    73   ar
   138    76    75   ar
   139    68    67    1
   140   157   155   ar
   141    30    29    1
   142   152   150   ar
   143   152   155   ar
   144    10     9    1
   145    67    66    1
   146    73    75   ar
   147    18    17   ar
   148   143   142    1
   149   150   149    1
   150    19    17   ar
   151   144   142    1
   152    11     9    1
   153    17    16    1
   154   142   139    1
   155     9     8    2
   156    29    28    1
   157   149   146    1
   158    28    27    1
   159     8     7    1
   160    16    13    1
   161   139   140    1
   162   139   138    1
   163     7     6    1
   164   140   141    2
   165   140   145   am
   166   146   145    1
   167   146   147    1
   168    27    24    1
   169    13    14    1
   170    13    12    1
   171    15    14    2
   172   147   148    2
   173     6     5    1
   174    24    23    1
   175    24    25    1
   176     5     2    1
   177    26    25    2
   178     2     1    1
   179     2     3    1
   180     3     4    2
