@<TRIPOS>MOLECULE
tmp/1y8oA01.pdb
 167 157 0 0 0
SMALL
GASTEIGER

@<TRIPOS>ATOM
      1  N        -54.4960   20.8820   77.0310 N.3   235  GLU235     -0.1231
      2  CA       -53.5790   20.2090   76.1560 C.3   235  GLU235      0.1699
      3  C        -53.4450   20.8810   74.7790 C.2   235  GLU235      0.2592
      4  O        -52.3310   21.0310   74.2830 O.2   235  GLU235     -0.2718
      5  CB       -53.9950   18.7620   76.0170 C.3   235  GLU235      0.0402
      6  CG       -52.8210   17.8090   76.0620 C.3   235  GLU235      0.1161
      7  CD       -51.9920   17.7730   77.4010 C.2   235  GLU235      0.3649
      8  OE1      -50.7370   17.7560   77.2570 O.co2 235  GLU235     -0.2457
      9  OE2      -52.5530   17.6760   78.5460 O.co2 235  GLU235     -0.2457
     10  N        -54.5510   21.2950   74.1680 N.am  236  LEU236     -0.1980
     11  CA       -54.4670   21.9380   72.8730 C.3   236  LEU236      0.1596
     12  C        -53.8230   23.3520   72.9580 C.2   236  LEU236      0.2287
     13  O        -53.0970   23.7920   72.0380 O.2   236  LEU236     -0.2864
     14  CB       -55.8530   22.0240   72.2200 C.3   236  LEU236      0.0297
     15  CG       -56.5840   20.7020   71.9900 C.3   236  LEU236      0.0022
     16  CD1      -57.9570   20.9320   71.3330 C.3   236  LEU236      0.0001
     17  CD2      -55.7150   19.7730   71.1380 C.3   236  LEU236      0.0001
     18  N        -51.6670   24.3660   75.2020 N.3   238  LYS238     -0.1231
     19  CA       -50.2540   24.1740   75.3740 C.3   238  LYS238      0.1693
     20  C        -49.5450   23.8810   74.0480 C.2   238  LYS238      0.2592
     21  O        -48.5250   24.4990   73.7770 O.2   238  LYS238     -0.2718
     22  CB       -50.0180   23.1020   76.3860 C.3   238  LYS238      0.0285
     23  CG       -48.6750   22.4990   76.3300 C.3   238  LYS238      0.0035
     24  CD       -48.7550   21.1280   77.0400 C.3   238  LYS238      0.0206
     25  CE       -49.3890   21.3180   78.4190 C.3   238  LYS238      0.1093
     26  NZ       -49.4180   20.0010   79.0830 N.3   238  LYS238     -0.1314
     27  N        -50.1030   23.0160   73.1970 N.am  239  ASN239     -0.1960
     28  CA       -49.5110   22.7380   71.8940 C.3   239  ASN239      0.1819
     29  C        -49.4570   23.9680   70.9970 C.2   239  ASN239      0.2622
     30  O        -48.4890   24.1940   70.2800 O.2   239  ASN239     -0.2715
     31  CB       -50.3010   21.6530   71.1540 C.3   239  ASN239      0.1195
     32  CG       -50.1430   20.2850   71.7920 C.2   239  ASN239      0.2630
     33  OD1      -49.1560   20.0170   72.4180 O.2   239  ASN239     -0.2716
     34  ND2      -51.1360   19.4400   71.6590 N.am  239  ASN239     -0.0877
     35  N        -50.5330   24.7390   71.0140 N.am  240  SER240     -0.1950
     36  CA       -50.6560   25.9130   70.1890 C.3   240  SER240      0.1924
     37  C        -49.6600   26.9990   70.6000 C.2   240  SER240      0.2314
     38  O        -49.0080   27.6010   69.7340 O.2   240  SER240     -0.2863
     39  CB       -52.0730   26.4220   70.2950 C.3   240  SER240      0.2116
     40  OG       -52.8400   25.7630   69.3020 O.3   240  SER240     -0.2180
     41  N        -46.7600   26.5740   72.4280 N.3   242  ARG242     -0.1231
     42  CA       -45.4180   26.0810   72.0900 C.3   242  ARG242      0.1694
     43  C        -45.1040   26.3160   70.6050 C.2   242  ARG242      0.2591
     44  O        -44.0890   26.9040   70.2720 O.2   242  ARG242     -0.2718
     45  CB       -45.2340   24.5810   72.4490 C.3   242  ARG242      0.0321
     46  CG       -43.9490   23.9470   71.8380 C.3   242  ARG242      0.0489
     47  CD       -43.5380   22.6300   72.4820 C.3   242  ARG242      0.2205
     48  NE       -44.3960   21.5640   71.9620 N.pl3 242  ARG242     -0.0865
     49  CZ       -45.4640   21.0170   72.5770 C.cat 242  ARG242      0.5346
     50  NH1      -45.8330   21.3870   73.8140 N.pl3 242  ARG242      0.1354
     51  NH2      -46.1580   20.0790   71.9390 N.pl3 242  ARG242      0.1354
     52  N        -45.9820   25.8790   69.7170 N.am  243  ALA243     -0.1980
     53  CA       -45.7340   26.0630   68.2930 C.3   243  ALA243      0.1597
     54  C        -45.6320   27.5520   67.9010 C.2   243  ALA243      0.2287
     55  O        -44.7300   27.9330   67.1460 O.2   243  ALA243     -0.2864
     56  CB       -46.8080   25.3400   67.4330 C.3   243  ALA243      0.0319
     57  N        -54.1800   28.2930   65.6180 N.3   275  ASP275     -0.1239
     58  CA       -52.9320   29.0170   65.8040 C.3   275  ASP275      0.1674
     59  C        -52.2350   29.2330   64.4850 C.2   275  ASP275      0.2266
     60  O        -52.6060   28.6380   63.4650 O.2   275  ASP275     -0.2867
     61  CB       -52.0190   28.2300   66.7360 C.3   275  ASP275      0.1410
     62  CG       -51.5610   26.9100   66.1300 C.2   275  ASP275      0.3668
     63  OD1      -50.8590   26.9240   65.0700 O.co2 275  ASP275     -0.2456
     64  OD2      -51.8880   25.8620   66.7480 O.co2 275  ASP275     -0.2456
     65  N        -48.9240   28.5940   64.1930 N.3   277  GLY277     -0.1225
     66  CA       -47.6580   28.1080   64.6670 C.3   277  GLY277      0.1811
     67  C        -46.9240   27.3800   63.5830 C.2   277  GLY277      0.2280
     68  O        -46.0290   26.6280   63.8880 O.2   277  GLY277     -0.2866
     69  N        -47.9080   25.0040   61.4100 N.3   279  GLY279     -0.1210
     70  CA       -48.4920   23.7790   60.9190 C.3   279  GLY279      0.1956
     71  C        -47.6050   22.5520   60.9410 C.2   279  GLY279      0.2611
     72  O        -46.4850   22.5810   61.4650 O.2   279  GLY279     -0.2717
     73  N        -48.1230   21.4860   60.3380 N.am  280  VAL280     -0.1979
     74  CA       -47.5910   20.1520   60.4200 C.3   280  VAL280      0.1595
     75  C        -47.9400   19.4400   59.1200 C.2   280  VAL280      0.2287
     76  O        -49.1050   19.4370   58.7250 O.2   280  VAL280     -0.2864
     77  CB       -48.2650   19.3670   61.5870 C.3   280  VAL280      0.0276
     78  CG1      -47.6530   17.9810   61.7210 C.3   280  VAL280      0.0022
     79  CG2      -48.0650   20.1370   62.9000 C.3   280  VAL280      0.0022
     80  N        -49.4360   11.9750   65.4120 N.3   288  LEU288     -0.1245
     81  CA       -49.6270   12.7730   66.6070 C.3   288  LEU288      0.1561
     82  C        -50.5380   12.0660   67.6200 C.2   288  LEU288      0.2260
     83  O        -50.4960   12.4020   68.7870 O.2   288  LEU288     -0.2867
     84  CB       -50.2010   14.1470   66.2690 C.3   288  LEU288      0.0270
     85  CG       -49.5070   15.0480   65.2330 C.3   288  LEU288      0.0019
     86  CD1      -50.0760   16.4800   65.3000 C.3   288  LEU288      0.0001
     87  CD2      -47.9370   15.0110   65.3860 C.3   288  LEU288      0.0001
     88  N        -44.9460    8.9370   69.7180 N.3   294  SER294     -0.1217
     89  CA       -44.9600   10.0950   70.6160 C.3   294  SER294      0.1889
     90  C        -44.9710   11.4150   69.8100 C.2   294  SER294      0.2288
     91  O        -45.8120   11.6030   68.9040 O.2   294  SER294     -0.2866
     92  CB       -43.7980   10.0550   71.6200 C.3   294  SER294      0.2089
     93  OG       -44.0200    9.0630   72.5970 O.3   294  SER294     -0.2183
     94  N        -42.1780   21.1200   78.5940 N.3   296  LEU296     -0.1245
     95  CA       -43.6550   21.1540   78.7260 C.3   296  LEU296      0.1561
     96  C        -44.2880   19.7870   78.4460 C.2   296  LEU296      0.2260
     97  O        -44.8670   19.5590   77.3770 O.2   296  LEU296     -0.2867
     98  CB       -44.3130   22.2240   77.8270 C.3   296  LEU296      0.0270
     99  CG       -44.2830   23.7240   78.1300 C.3   296  LEU296      0.0019
    100  CD1      -44.9620   24.4480   76.9920 C.3   296  LEU296      0.0001
    101  CD2      -44.9670   24.0460   79.4430 C.3   296  LEU296      0.0001
    102  N        -43.5600   13.5860   77.3190 N.3   297  PHE297     -0.1227
    103  CA       -44.4160   12.3890   77.3020 C.3   297  PHE297      0.1736
    104  C        -45.4330   12.6670   76.2150 C.2   297  PHE297      0.2596
    105  O        -46.1230   13.7070   76.2540 O.2   297  PHE297     -0.2718
    106  CB       -45.1430   12.1540   78.6470 C.3   297  PHE297      0.0547
    107  CG       -44.3200   12.4880   79.8810 C.ar  297  PHE297     -0.0202
    108  CD1      -44.3830   13.7710   80.4620 C.ar  297  PHE297     -0.0042
    109  CD2      -43.4950   11.5240   80.4790 C.ar  297  PHE297     -0.0042
    110  CE1      -43.6270   14.0890   81.6130 C.ar  297  PHE297     -0.0003
    111  CE2      -42.7290   11.8330   81.6400 C.ar  297  PHE297     -0.0003
    112  CZ       -42.7980   13.1130   82.2050 C.ar  297  PHE297     -0.0000
    113  N        -45.5390   11.8040   75.2160 N.am  298  GLY298     -0.1942
    114  CA       -46.3860   12.2190   74.0890 C.3   298  GLY298      0.2014
    115  C        -47.8470   11.8210   74.2360 C.2   298  GLY298      0.2639
    116  O        -48.4060   11.2660   73.3040 O.2   298  GLY298     -0.2714
    117  N        -48.4740   12.0830   75.3820 N.am  299  TYR299     -0.1959
    118  CA       -49.7970   11.4820   75.6740 C.3   299  TYR299      0.1771
    119  C        -50.9310   12.4720   75.6160 C.2   299  TYR299      0.2620
    120  O        -52.0820   12.0620   75.5610 O.2   299  TYR299     -0.2715
    121  CB       -49.8250   10.7850   77.0420 C.3   299  TYR299      0.0574
    122  CG       -49.3880    9.3430   77.0120 C.ar  299  TYR299     -0.0198
    123  CD1      -48.3460    8.9300   76.1790 C.ar  299  TYR299     -0.0009
    124  CD2      -49.9820    8.3920   77.8430 C.ar  299  TYR299     -0.0009
    125  CE1      -47.9080    7.5980   76.1660 C.ar  299  TYR299      0.0417
    126  CE2      -49.5550    7.0370   77.8240 C.ar  299  TYR299      0.0417
    127  CZ       -48.5240    6.6660   76.9770 C.ar  299  TYR299      0.1957
    128  OH       -48.0750    5.3750   76.9280 O.3   299  TYR299     -0.2866
    129  N        -50.6020   13.7570   75.5990 N.am  300  GLY300     -0.1940
    130  CA       -51.5870   14.7910   75.6750 C.3   300  GLY300      0.2014
    131  C        -52.6470   14.7200   74.5950 C.2   300  GLY300      0.2639
    132  O        -53.8360   14.9100   74.8670 O.2   300  GLY300     -0.2714
    133  N        -52.2290   14.4880   73.3610 N.am  301  LEU301     -0.1963
    134  CA       -53.1900   14.5080   72.2670 C.3   301  LEU301      0.1713
    135  C        -54.0720   13.2180   72.2230 C.2   301  LEU301      0.2458
    136  O        -55.2890   13.3170   72.1080 O.2   301  LEU301     -0.2730
    137  CB       -52.4560   14.7100   70.9630 C.3   301  LEU301      0.0310
    138  CG       -52.8340   15.7380   69.9070 C.3   301  LEU301      0.0022
    139  CD1      -53.7250   16.8820   70.4100 C.3   301  LEU301      0.0001
    140  CD2      -51.5140   16.2230   69.2460 C.3   301  LEU301      0.0001
    141  N        -53.4740   12.0160   72.2950 N.am  302  PRO302     -0.2727
    142  CA       -54.3480   10.8160   72.3770 C.3   302  PRO302      0.1402
    143  C        -55.3040   10.7800   73.5920 C.2   302  PRO302      0.2269
    144  O        -56.4980   10.5020   73.4160 O.2   302  PRO302     -0.2865
    145  CB       -53.3620    9.6340   72.4280 C.3   302  PRO302      0.0296
    146  CG       -51.9530   10.3090   72.6800 C.3   302  PRO302      0.0237
    147  CD       -52.0370   11.6920   72.2030 C.3   302  PRO302      0.0939
    148  N        -57.8090   17.3140   64.2470 N.3   317  LEU317     -0.1245
    149  CA       -56.7630   18.2750   63.9580 C.3   317  LEU317      0.1561
    150  C        -56.6310   18.4000   62.4850 C.2   317  LEU317      0.2260
    151  O        -56.6660   17.3790   61.7670 O.2   317  LEU317     -0.2867
    152  CB       -55.4040   17.7900   64.4330 C.3   317  LEU317      0.0270
    153  CG       -54.9520   17.9650   65.8670 C.3   317  LEU317      0.0019
    154  CD1      -53.4470   17.8600   65.9190 C.3   317  LEU317      0.0001
    155  CD2      -55.3450   19.2440   66.3900 C.3   317  LEU317      0.0001
    156  N        -52.5490   25.5640   62.4000 N.3   325  THR325     -0.1218
    157  CA       -53.2990   24.3720   62.6990 C.3   325  THR325      0.1862
    158  C        -54.6290   24.7370   63.4000 C.2   325  THR325      0.2287
    159  O        -54.6620   25.6720   64.2450 O.2   325  THR325     -0.2866
    160  CB       -52.4340   23.4620   63.6380 C.3   325  THR325      0.1770
    161  OG1      -51.1790   23.1770   62.9980 O.3   325  THR325     -0.2211
    162  CG2      -53.1610   22.1380   63.9650 C.3   325  THR325      0.0375
    163  N        -57.5420   22.9240   65.7620 N.3   327  ALA327     -0.1245
    164  CA       -57.8450   21.7240   66.5510 C.3   327  ALA327      0.1562
    165  C        -59.3160   21.9190   66.9600 C.2   327  ALA327      0.2260
    166  O        -59.6820   23.0270   67.4430 O.2   327  ALA327     -0.2867
    167  CB       -56.9520   21.6410   67.7500 C.3   327  ALA327      0.0290
@<TRIPOS>BOND
     1    76    75    2
     2    75    74    1
     3    73    74    1
     4    73    71   am
     5    74    77    1
     6    70    71    1
     7    70    69    1
     8    71    72    2
     9    77    78    1
    10    77    79    1
    11   151   150    2
    12   156   157    1
    13   150   149    1
    14   157   158    1
    15   157   160    1
    16   161   160    1
    17   158   159    2
    18    60    59    2
    19    67    68    2
    20    67    66    1
    21   160   162    1
    22   149   148    1
    23   149   152    1
    24    65    66    1
    25   152   153    1
    26    59    58    1
    27    63    62   ar
    28    85    86    1
    29    85    87    1
    30    85    84    1
    31    80    81    1
    32    57    58    1
    33   163   164    1
    34    58    61    1
    35   153   154    1
    36   153   155    1
    37    62    61    1
    38    62    64   ar
    39    84    81    1
    40   164   165    1
    41   164   167    1
    42    81    82    1
    43   165   166    2
    44    55    54    2
    45    56    53    1
    46    82    83    2
    47    54    53    1
    48    53    52    1
    49    91    90    2
    50   140   138    1
    51    40    39    1
    52    52    43   am
    53    88    89    1
    54    38    37    2
    55    90    89    1
    56   138   139    1
    57   138   137    1
    58    36    39    1
    59    36    37    1
    60    36    35    1
    61    44    43    2
    62    30    29    2
    63    43    42    1
    64    89    92    1
    65   137   134    1
    66    29    35   am
    67    29    28    1
    68    17    15    1
    69    31    32    1
    70    31    28    1
    71    16    15    1
    72    92    93    1
    73    34    32   am
    74    32    33    2
    75    46    45    1
    76    46    47    1
    77    28    27    1
    78    51    49    1
    79    48    47    1
    80    48    49    2
    81    15    14    1
    82    13    12    2
    83    42    41    1
    84    42    45    1
    85   136   135    2
    86   147   141    1
    87   147   146    1
    88    14    11    1
    89   135   134    1
    90   135   141   am
    91   134   133    1
    92   141   142    1
    93   142   145    1
    94   142   143    1
    95   145   146    1
    96    49    50    1
    97    11    12    1
    98    11    10    1
    99    27    20   am
   100   116   115    2
   101   133   131   am
   102   144   143    2
   103    21    20    2
   104    20    19    1
   105   114   115    1
   106   114   113    1
   107    10     3   am
   108   115   117   am
   109     4     3    2
   110   131   132    2
   111   131   130    1
   112     3     2    1
   113    18    19    1
   114   113   104   am
   115    19    22    1
   116   117   118    1
   117   120   119    2
   118   129   119   am
   119   129   130    1
   120   119   118    1
   121   118   121    1
   122     5     6    1
   123     5     2    1
   124     6     7    1
   125     2     1    1
   126   125   123   ar
   127   125   127   ar
   128   123   122   ar
   129   104   105    2
   130   104   103    1
   131    23    22    1
   132    23    24    1
   133   128   127    1
   134   127   126   ar
   135   100    99    1
   136   122   121    1
   137   122   124   ar
   138    24    25    1
   139     8     7   ar
   140   103   102    1
   141   103   106    1
   142    97    96    2
   143     7     9   ar
   144   126   124   ar
   145    98    99    1
   146    98    95    1
   147    99   101    1
   148    25    26    1
   149    96    95    1
   150    94    95    1
   151   106   107    1
   152   107   108   ar
   153   107   109   ar
   154   108   110   ar
   155   109   111   ar
   156   110   112   ar
   157   111   112   ar
