@<TRIPOS>MOLECULE
tmp/1y8pA01.pdb
 190 183 0 0 0
SMALL
GASTEIGER

@<TRIPOS>ATOM
      1  N        -54.9210   20.5760   77.5350 N.3   236  GLU236     -0.1231
      2  CA       -53.9340   19.8210   76.8310 C.3   236  GLU236      0.1699
      3  C        -53.7650   20.3850   75.3970 C.2   236  GLU236      0.2592
      4  O        -52.6490   20.4380   74.8440 O.2   236  GLU236     -0.2718
      5  CB       -54.3860   18.3690   76.8900 C.3   236  GLU236      0.0402
      6  CG       -53.3130   17.3610   77.0250 C.3   236  GLU236      0.1161
      7  CD       -52.3710   17.4710   78.2350 C.2   236  GLU236      0.3649
      8  OE1      -51.1300   17.5160   78.0030 O.co2 236  GLU236     -0.2457
      9  OE2      -52.8350   17.4130   79.3980 O.co2 236  GLU236     -0.2457
     10  N        -54.8470   20.8560   74.7890 N.am  237  LEU237     -0.1980
     11  CA       -54.7220   21.3390   73.4400 C.3   237  LEU237      0.1596
     12  C        -54.0200   22.6940   73.4420 C.2   237  LEU237      0.2287
     13  O        -53.2180   22.9910   72.5420 O.2   237  LEU237     -0.2864
     14  CB       -56.0890   21.4310   72.7900 C.3   237  LEU237      0.0297
     15  CG       -56.8670   20.1110   72.5600 C.3   237  LEU237      0.0022
     16  CD1      -58.2280   20.4620   71.9450 C.3   237  LEU237      0.0001
     17  CD2      -56.1140   19.2210   71.6310 C.3   237  LEU237      0.0001
     18  N        -51.7370   23.7730   75.7790 N.3   239  LYS239     -0.1231
     19  CA       -50.2830   23.5870   75.9220 C.3   239  LYS239      0.1693
     20  C        -49.6410   23.2800   74.5610 C.2   239  LYS239      0.2592
     21  O        -48.5970   23.7880   74.2530 O.2   239  LYS239     -0.2718
     22  CB       -49.9440   22.4640   76.8780 C.3   239  LYS239      0.0285
     23  CG       -50.2840   22.7420   78.3120 C.3   239  LYS239      0.0035
     24  CD       -49.5780   21.7610   79.2740 C.3   239  LYS239      0.0206
     25  CE       -50.1370   20.3060   79.1440 C.3   239  LYS239      0.1093
     26  NZ       -49.1110   19.2570   79.5070 N.3   239  LYS239     -0.1314
     27  N        -50.2660   22.4320   73.7470 N.am  240  ASN240     -0.1960
     28  CA       -49.6890   22.1020   72.4430 C.3   240  ASN240      0.1819
     29  C        -49.6040   23.3420   71.5680 C.2   240  ASN240      0.2622
     30  O        -48.6030   23.5770   70.8910 O.2   240  ASN240     -0.2715
     31  CB       -50.5220   21.0560   71.7120 C.3   240  ASN240      0.1195
     32  CG       -50.5190   19.6930   72.3960 C.2   240  ASN240      0.2630
     33  OD1      -49.6980   19.3810   73.2290 O.2   240  ASN240     -0.2716
     34  ND2      -51.4560   18.8690   72.0040 N.am  240  ASN240     -0.0877
     35  N        -50.6630   24.1400   71.5680 N.am  241  SER241     -0.1950
     36  CA       -50.7280   25.3170   70.7190 C.3   241  SER241      0.1924
     37  C        -49.7130   26.3890   71.1390 C.2   241  SER241      0.2314
     38  O        -49.1100   27.0640   70.3010 O.2   241  SER241     -0.2863
     39  CB       -52.1140   25.8900   70.8100 C.3   241  SER241      0.2116
     40  OG       -52.8590   25.4480   69.7180 O.3   241  SER241     -0.2180
     41  N        -46.8380   25.9600   72.9310 N.3   243  ARG243     -0.1231
     42  CA       -45.5250   25.4580   72.5340 C.3   243  ARG243      0.1694
     43  C        -45.2770   25.6660   71.0400 C.2   243  ARG243      0.2591
     44  O        -44.2590   26.2350   70.6570 O.2   243  ARG243     -0.2718
     45  CB       -45.3320   23.9880   72.9260 C.3   243  ARG243      0.0321
     46  CG       -44.3080   23.2630   72.0670 C.3   243  ARG243      0.0489
     47  CD       -43.5140   22.1850   72.7890 C.3   243  ARG243      0.2205
     48  NE       -42.7510   21.4030   71.8180 N.pl3 243  ARG243     -0.0865
     49  CZ       -43.1470   20.2270   71.3350 C.cat 243  ARG243      0.5346
     50  NH1      -44.2910   19.6630   71.7540 N.pl3 243  ARG243      0.1354
     51  NH2      -42.3990   19.5920   70.4510 N.pl3 243  ARG243      0.1354
     52  N        -46.2090   25.2370   70.2000 N.am  244  ALA244     -0.1980
     53  CA       -45.9630   25.3130   68.7680 C.3   244  ALA244      0.1597
     54  C        -45.7140   26.7710   68.3190 C.2   244  ALA244      0.2287
     55  O        -44.7670   27.0250   67.5500 O.2   244  ALA244     -0.2864
     56  CB       -47.1040   24.6570   67.9580 C.3   244  ALA244      0.0319
     57  N        -54.2760   27.7100   65.8620 N.3   276  ASP276     -0.1239
     58  CA       -53.0190   28.3890   66.1200 C.3   276  ASP276      0.1674
     59  C        -52.3200   28.6300   64.8070 C.2   276  ASP276      0.2266
     60  O        -52.6120   27.9740   63.8160 O.2   276  ASP276     -0.2867
     61  CB       -52.1520   27.6040   67.1120 C.3   276  ASP276      0.1410
     62  CG       -51.6980   26.2330   66.5640 C.2   276  ASP276      0.3668
     63  OD1      -51.0550   26.1990   65.4770 O.co2 276  ASP276     -0.2456
     64  OD2      -51.9730   25.1940   67.2310 O.co2 276  ASP276     -0.2456
     65  N        -49.1070   28.0770   64.5560 N.3   278  GLY278     -0.1225
     66  CA       -47.8700   27.5340   65.0410 C.3   278  GLY278      0.1811
     67  C        -47.1010   26.6850   64.0590 C.2   278  GLY278      0.2280
     68  O        -46.2660   25.9170   64.5010 O.2   278  GLY278     -0.2866
     69  N        -48.0330   24.1410   61.9700 N.3   280  GLY280     -0.1210
     70  CA       -48.7440   22.9560   61.4750 C.3   280  GLY280      0.1956
     71  C        -47.8730   21.7060   61.4370 C.2   280  GLY280      0.2611
     72  O        -46.7470   21.7140   61.9310 O.2   280  GLY280     -0.2717
     73  N        -48.4030   20.6420   60.8380 N.am  281  VAL281     -0.1979
     74  CA       -47.8270   19.3020   60.8700 C.3   281  VAL281      0.1595
     75  C        -48.0890   18.6800   59.5030 C.2   281  VAL281      0.2287
     76  O        -49.1980   18.7340   58.9980 O.2   281  VAL281     -0.2864
     77  CB       -48.5530   18.4680   61.9370 C.3   281  VAL281      0.0276
     78  CG1      -48.1070   17.0080   61.9290 C.3   281  VAL281      0.0022
     79  CG2      -48.3420   19.0680   63.3140 C.3   281  VAL281      0.0022
     80  N        -49.5600   11.4740   65.6400 N.3   289  LEU289     -0.1245
     81  CA       -49.6230   12.4200   66.7540 C.3   289  LEU289      0.1561
     82  C        -50.3890   11.7830   67.8980 C.2   289  LEU289      0.2260
     83  O        -50.1060   12.0900   69.0450 O.2   289  LEU289     -0.2867
     84  CB       -50.3170   13.7090   66.3790 C.3   289  LEU289      0.0270
     85  CG       -49.7560   14.5630   65.2540 C.3   289  LEU289      0.0019
     86  CD1      -50.3550   15.9640   65.3820 C.3   289  LEU289      0.0001
     87  CD2      -48.1990   14.6140   65.2250 C.3   289  LEU289      0.0001
     88  N        -45.7650    9.3790   71.3370 N.3   294  TYR294     -0.1227
     89  CA       -45.1770   10.1000   70.2340 C.3   294  TYR294      0.1736
     90  C        -44.9950   11.5590   70.6970 C.2   294  TYR294      0.2596
     91  O        -45.9500   12.2540   71.0350 O.2   294  TYR294     -0.2718
     92  CB       -46.0040    9.9810   68.9390 C.3   294  TYR294      0.0548
     93  CG       -45.4430   10.8610   67.8470 C.ar  294  TYR294     -0.0200
     94  CD1      -44.4970   10.3710   66.9320 C.ar  294  TYR294     -0.0009
     95  CD2      -45.8030   12.2050   67.7680 C.ar  294  TYR294     -0.0009
     96  CE1      -43.9520   11.2100   65.9310 C.ar  294  TYR294      0.0417
     97  CE2      -45.2590   13.0450   66.7950 C.ar  294  TYR294      0.0417
     98  CZ       -44.3360   12.5450   65.8830 C.ar  294  TYR294      0.1957
     99  OH       -43.8090   13.4080   64.9370 O.3   294  TYR294     -0.2866
    100  N        -43.7530   12.0020   70.7620 N.am  295  SER295     -0.1938
    101  CA       -43.4910   13.3830   71.1190 C.3   295  SER295      0.2055
    102  C        -42.3470   13.9850   70.3360 C.2   295  SER295      0.2643
    103  O        -41.4010   13.2940   69.9800 O.2   295  SER295     -0.2714
    104  CB       -43.2020   13.4980   72.5990 C.3   295  SER295      0.2130
    105  OG       -43.0910   14.8640   72.8910 O.3   295  SER295     -0.2179
    106  N        -42.4380   15.2730   70.0540 N.am  296  THR296     -0.1950
    107  CA       -41.2880   15.9810   69.4740 C.3   296  THR296      0.1897
    108  C        -40.5640   16.8460   70.4910 C.2   296  THR296      0.2313
    109  O        -39.5930   17.4820   70.1460 O.2   296  THR296     -0.2863
    110  CB       -41.6110   16.8360   68.2400 C.3   296  THR296      0.1794
    111  OG1      -42.5840   17.8260   68.5780 O.3   296  THR296     -0.2208
    112  CG2      -42.0910   15.9940   67.0790 C.3   296  THR296      0.0378
    113  N        -43.1490   21.9560   78.2680 N.3   301  LEU301     -0.1231
    114  CA       -44.6010   21.6380   78.3370 C.3   301  LEU301      0.1693
    115  C        -44.9440   20.2020   77.8620 C.2   301  LEU301      0.2592
    116  O        -45.8860   19.5610   78.3630 O.2   301  LEU301     -0.2718
    117  CB       -45.3980   22.6630   77.5010 C.3   301  LEU301      0.0284
    118  CG       -45.3850   24.1390   77.9240 C.3   301  LEU301      0.0019
    119  CD1      -46.2600   24.9990   76.9970 C.3   301  LEU301      0.0001
    120  CD2      -45.8080   24.2920   79.3940 C.3   301  LEU301      0.0001
    121  N        -44.1600   19.7410   76.8850 N.am  302  ALA302     -0.1966
    122  CA       -44.2870   18.4440   76.2570 C.3   302  ALA302      0.1728
    123  C        -43.1950   17.4540   76.7340 C.2   302  ALA302      0.2617
    124  O        -42.1950   17.8540   77.3670 O.2   302  ALA302     -0.2715
    125  CB       -44.1950   18.6280   74.7790 C.3   302  ALA302      0.0334
    126  N        -43.3850   16.1710   76.4130 N.am  303  GLY303     -0.1940
    127  CA       -42.4470   15.1270   76.7950 C.3   303  GLY303      0.2014
    128  C        -43.0790   13.7480   76.7610 C.2   303  GLY303      0.2639
    129  O        -42.5820   12.8540   76.0720 O.2   303  GLY303     -0.2714
    130  N        -44.1800   13.5930   77.4970 N.am  304  PHE304     -0.1959
    131  CA       -44.8520   12.3000   77.6820 C.3   304  PHE304      0.1771
    132  C        -45.5490   11.7300   76.4270 C.2   304  PHE304      0.2620
    133  O        -45.4470   10.5530   76.1310 O.2   304  PHE304     -0.2715
    134  CB       -45.8300   12.3830   78.8700 C.3   304  PHE304      0.0574
    135  CG       -45.1460   12.4840   80.2200 C.ar  304  PHE304     -0.0200
    136  CD1      -44.8240   13.7480   80.7760 C.ar  304  PHE304     -0.0042
    137  CD2      -44.8190   11.3250   80.9420 C.ar  304  PHE304     -0.0042
    138  CE1      -44.1740   13.8580   82.0450 C.ar  304  PHE304     -0.0003
    139  CE2      -44.1670   11.4190   82.2200 C.ar  304  PHE304     -0.0003
    140  CZ       -43.8430   12.6930   82.7670 C.ar  304  PHE304     -0.0000
    141  N        -46.2420   12.5700   75.6840 N.am  305  GLY305     -0.1940
    142  CA       -46.9490   12.1030   74.5170 C.3   305  GLY305      0.2014
    143  C        -48.3150   11.5320   74.8610 C.2   305  GLY305      0.2639
    144  O        -48.8380   10.7180   74.1180 O.2   305  GLY305     -0.2714
    145  N        -48.9040   11.9700   75.9720 N.am  306  TYR306     -0.1959
    146  CA       -50.1880   11.4410   76.4260 C.3   306  TYR306      0.1771
    147  C        -51.3200   12.4230   76.1800 C.2   306  TYR306      0.2620
    148  O        -52.4810   12.0310   76.0630 O.2   306  TYR306     -0.2715
    149  CB       -50.1180   11.0280   77.8890 C.3   306  TYR306      0.0574
    150  CG       -49.8180    9.5550   78.0700 C.ar  306  TYR306     -0.0198
    151  CD1      -48.7100    8.9450   77.4360 C.ar  306  TYR306     -0.0009
    152  CD2      -50.6340    8.7580   78.8800 C.ar  306  TYR306     -0.0009
    153  CE1      -48.4440    7.5900   77.5900 C.ar  306  TYR306      0.0417
    154  CE2      -50.3740    7.4140   79.0430 C.ar  306  TYR306      0.0417
    155  CZ       -49.2920    6.8260   78.3940 C.ar  306  TYR306      0.1957
    156  OH       -49.0870    5.4730   78.5820 O.3   306  TYR306     -0.2866
    157  N        -50.9710   13.6910   76.0100 N.am  307  GLY307     -0.1940
    158  CA       -51.9430   14.7540   75.9600 C.3   307  GLY307      0.2014
    159  C        -52.9880   14.5860   74.9070 C.2   307  GLY307      0.2639
    160  O        -54.1860   14.7540   75.1560 O.2   307  GLY307     -0.2714
    161  N        -52.5590   14.2490   73.7040 N.am  308  LEU308     -0.1963
    162  CA       -53.4990   14.1620   72.6050 C.3   308  LEU308      0.1713
    163  C        -54.3700   12.8750   72.6270 C.2   308  LEU308      0.2458
    164  O        -55.5740   12.9500   72.4030 O.2   308  LEU308     -0.2730
    165  CB       -52.7170   14.2910   71.3290 C.3   308  LEU308      0.0310
    166  CG       -53.1340   15.2660   70.2210 C.3   308  LEU308      0.0022
    167  CD1      -54.1380   16.3410   70.6730 C.3   308  LEU308      0.0001
    168  CD2      -51.9150   15.7990   69.4270 C.3   308  LEU308      0.0001
    169  N        -53.7690   11.6750   72.8570 N.am  309  PRO309     -0.2727
    170  CA       -54.6760   10.5500   72.8540 C.3   309  PRO309      0.1402
    171  C        -55.6020   10.5300   74.0550 C.2   309  PRO309      0.2269
    172  O        -56.7790   10.1340   73.9000 O.2   309  PRO309     -0.2865
    173  CB       -53.7450    9.3350   72.8770 C.3   309  PRO309      0.0296
    174  CG       -52.4370    9.8280   73.3510 C.3   309  PRO309      0.0237
    175  CD       -52.3530   11.2680   73.0230 C.3   309  PRO309      0.0939
    176  N        -57.9710   16.6950   64.3660 N.3   324  LEU324     -0.1245
    177  CA       -56.9370   17.6830   64.1220 C.3   324  LEU324      0.1561
    178  C        -56.7260   17.8000   62.6440 C.2   324  LEU324      0.2260
    179  O        -56.6310   16.7850   61.9200 O.2   324  LEU324     -0.2867
    180  CB       -55.5970   17.2640   64.6690 C.3   324  LEU324      0.0270
    181  CG       -54.9790   17.5680   66.0330 C.3   324  LEU324      0.0019
    182  CD1      -53.5300   17.9710   65.8420 C.3   324  LEU324      0.0001
    183  CD2      -55.6620   18.6360   66.8490 C.3   324  LEU324      0.0001
    184  N        -52.4990   24.9200   62.8790 N.3   332  THR332     -0.1218
    185  CA       -53.3620   23.7870   63.0990 C.3   332  THR332      0.1862
    186  C        -54.7020   24.1790   63.7390 C.2   332  THR332      0.2287
    187  O        -54.7210   25.0800   64.5740 O.2   332  THR332     -0.2866
    188  CB       -52.6460   22.8000   64.0650 C.3   332  THR332      0.1770
    189  OG1      -51.3610   22.4490   63.5280 O.3   332  THR332     -0.2211
    190  CG2      -53.4760   21.5560   64.2940 C.3   332  THR332      0.0375
@<TRIPOS>BOND
     1    76    75    2
     2    75    74    1
     3    73    74    1
     4    73    71   am
     5    74    77    1
     6    71    70    1
     7    71    72    2
     8    70    69    1
     9   179   178    2
    10    78    77    1
    11    77    79    1
    12   178   177    1
    13   184   185    1
    14   185   186    1
    15   185   188    1
    16   189   188    1
    17   186   187    2
    18    60    59    2
    19    67    68    2
    20    67    66    1
    21   188   190    1
    22   177   176    1
    23   177   180    1
    24    65    66    1
    25   180   181    1
    26    59    58    1
    27    99    98    1
    28    87    85    1
    29    85    86    1
    30    85    84    1
    31    63    62   ar
    32    80    81    1
    33   182   181    1
    34    57    58    1
    35    98    96   ar
    36    98    97   ar
    37    96    94   ar
    38   181   183    1
    39    58    61    1
    40    84    81    1
    41    62    61    1
    42    62    64   ar
    43    81    82    1
    44    97    95   ar
    45    94    93   ar
    46   112   110    1
    47    55    54    2
    48    95    93   ar
    49    93    92    1
    50    82    83    2
    51    56    53    1
    52   110   111    1
    53   110   107    1
    54    54    53    1
    55    53    52    1
    56    92    89    1
    57   168   166    1
    58   107   106    1
    59   107   108    1
    60    40    39    1
    61   103   102    2
    62   106   102   am
    63   109   108    2
    64    52    43   am
    65   166   167    1
    66   166   165    1
    67    89    90    1
    68    89    88    1
    69    38    37    2
    70   102   101    1
    71    51    49    1
    72    44    43    2
    73    90   100   am
    74    90    91    2
    75    36    39    1
    76    36    37    1
    77    36    35    1
    78   100   101    1
    79    30    29    2
    80    43    42    1
    81   101   104    1
    82   165   162    1
    83    49    50    1
    84    49    48    2
    85    29    35   am
    86    29    28    1
    87    17    15    1
    88    31    32    1
    89    31    28    1
    90    48    47    1
    91    16    15    1
    92    34    32   am
    93    46    47    1
    94    46    45    1
    95    32    33    2
    96   164   163    2
    97    28    27    1
    98    42    45    1
    99    42    41    1
   100    13    12    2
   101    15    14    1
   102   104   105    1
   103   162   163    1
   104   162   161    1
   105   163   169   am
   106    14    11    1
   107   170   169    1
   108   170   173    1
   109   170   171    1
   110   169   175    1
   111   173   174    1
   112   175   174    1
   113    11    12    1
   114    11    10    1
   115   161   159   am
   116    27    20   am
   117   172   171    2
   118   144   143    2
   119    21    20    2
   120   142   143    1
   121   142   141    1
   122    20    19    1
   123   125   122    1
   124    10     3   am
   125     4     3    2
   126   143   145   am
   127   159   160    2
   128   159   158    1
   129     3     2    1
   130   141   132   am
   131    18    19    1
   132    19    22    1
   133   158   157    1
   134   145   146    1
   135   157   147   am
   136   148   147    2
   137   129   128    2
   138   133   132    2
   139   147   146    1
   140   122   123    1
   141   122   121    1
   142   126   123   am
   143   126   127    1
   144   146   149    1
   145   132   131    1
   146   123   124    2
   147   128   127    1
   148   128   130   am
   149     2     5    1
   150     2     1    1
   151    22    23    1
   152   121   115   am
   153     5     6    1
   154   119   118    1
   155     6     7    1
   156   151   153   ar
   157   151   150   ar
   158   130   131    1
   159   117   118    1
   160   117   114    1
   161   153   155   ar
   162   131   134    1
   163   115   114    1
   164   115   116    2
   165   149   150    1
   166   118   120    1
   167     8     7   ar
   168   150   152   ar
   169     7     9   ar
   170   113   114    1
   171    23    24    1
   172   155   156    1
   173   155   154   ar
   174   134   135    1
   175   152   154   ar
   176    25    24    1
   177    25    26    1
   178   135   136   ar
   179   135   137   ar
   180   136   138   ar
   181   137   139   ar
   182   138   140   ar
   183   139   140   ar
