@<TRIPOS>MOLECULE
tmp/1y8pA00.pdb
 112 107 0 0 0
SMALL
GASTEIGER

@<TRIPOS>ATOM
      1  N        -72.7820   -1.9140   80.9970 N.3    14  SER14      -0.1217
      2  CA       -74.0250   -1.1790   80.8760 C.3    14  SER14       0.1889
      3  C        -73.7180    0.3290   80.7290 C.2    14  SER14       0.2288
      4  O        -73.5410    1.0460   81.7300 O.2    14  SER14      -0.2866
      5  CB       -74.8660   -1.4550   82.1330 C.3    14  SER14       0.2089
      6  OG       -75.6140   -2.6530   81.9850 O.3    14  SER14      -0.2183
      7  N        -74.1020    4.1700   80.5210 N.3    16  LEU16      -0.1245
      8  CA       -75.0160    5.1510   81.0430 C.3    16  LEU16       0.1561
      9  C        -74.8820    6.5040   80.3270 C.2    16  LEU16       0.2260
     10  O        -73.7860    6.8940   79.9190 O.2    16  LEU16      -0.2867
     11  CB       -74.6470    5.3570   82.4940 C.3    16  LEU16       0.0270
     12  CG       -75.4560    4.7090   83.6120 C.3    16  LEU16       0.0019
     13  CD1      -76.3050    3.4720   83.1890 C.3    16  LEU16       0.0001
     14  CD2      -74.5030    4.4410   84.7580 C.3    16  LEU16       0.0001
     15  N        -79.0700   10.1010   82.4390 N.3    20  GLN20      -0.1231
     16  CA       -79.3330    9.1450   83.5190 C.3    20  GLN20       0.1698
     17  C        -78.5960    9.5030   84.8100 C.2    20  GLN20       0.2592
     18  O        -79.2020    9.5260   85.8830 O.2    20  GLN20      -0.2718
     19  CB       -79.0370    7.7060   83.0990 C.3    20  GLN20       0.0381
     20  CG       -79.9650    7.1490   82.0430 C.3    20  GLN20       0.0905
     21  CD       -79.4810    5.8110   81.4940 C.2    20  GLN20       0.2608
     22  OE1      -78.4010    5.7120   80.9010 O.2    20  GLN20      -0.2717
     23  NE2      -80.2860    4.7740   81.6770 N.am   20  GLN20      -0.0878
     24  N        -77.3080    9.8240   84.7120 N.am   21  PHE21      -0.1976
     25  CA       -76.5620   10.2710   85.9010 C.3    21  PHE21       0.1639
     26  C        -77.2320   11.4500   86.5760 C.2    21  PHE21       0.2290
     27  O        -77.3700   11.4900   87.7920 O.2    21  PHE21      -0.2864
     28  CB       -75.1710   10.7160   85.5250 C.3    21  PHE21       0.0560
     29  CG       -74.2390    9.6000   85.2530 C.ar   21  PHE21      -0.0200
     30  CD1      -73.9360    8.6750   86.2480 C.ar   21  PHE21      -0.0042
     31  CD2      -73.6300    9.4790   83.9990 C.ar   21  PHE21      -0.0042
     32  CE1      -73.0510    7.6280   85.9970 C.ar   21  PHE21      -0.0003
     33  CE2      -72.7360    8.4400   83.7360 C.ar   21  PHE21      -0.0003
     34  CZ       -72.4430    7.5150   84.7390 C.ar   21  PHE21      -0.0000
     35  N        -80.8260   10.4540   87.8640 N.3    24  PHE24      -0.1241
     36  CA       -80.6450    9.7000   89.0900 C.3    24  PHE24       0.1605
     37  C        -80.2750   10.6140   90.2620 C.2    24  PHE24       0.2264
     38  O        -80.9020   10.5640   91.3140 O.2    24  PHE24      -0.2867
     39  CB       -79.6160    8.5750   88.9430 C.3    24  PHE24       0.0534
     40  CG       -79.3830    7.8250   90.2220 C.ar   24  PHE24      -0.0203
     41  CD1      -80.3060    6.8840   90.6680 C.ar   24  PHE24      -0.0042
     42  CD2      -78.2710    8.0990   91.0140 C.ar   24  PHE24      -0.0042
     43  CE1      -80.1120    6.2070   91.8820 C.ar   24  PHE24      -0.0003
     44  CE2      -78.0710    7.4300   92.2360 C.ar   24  PHE24      -0.0003
     45  CZ       -78.9920    6.4830   92.6670 C.ar   24  PHE24      -0.0000
     46  N        -80.3080    1.7890   95.2410 N.3    33  THR33      -0.1203
     47  CA       -80.3060    1.5940   93.7900 C.3    33  THR33       0.1994
     48  C        -78.8830    1.6620   93.2260 C.2    33  THR33       0.2618
     49  O        -78.4810    0.8120   92.4190 O.2    33  THR33      -0.2717
     50  CB       -81.1970    2.6510   93.0740 C.3    33  THR33       0.1784
     51  OG1      -82.4860    2.6820   93.6860 O.3    33  THR33      -0.2211
     52  CG2      -81.3610    2.3440   91.5840 C.3    33  THR33       0.0376
     53  N        -78.1320    2.6670   93.6700 N.am   34  SER34      -0.1951
     54  CA       -76.7770    2.8780   93.1930 C.3    34  SER34       0.1924
     55  C        -75.9140    1.6830   93.5540 C.2    34  SER34       0.2314
     56  O        -75.1080    1.2060   92.7400 O.2    34  SER34      -0.2863
     57  CB       -76.1920    4.1620   93.8020 C.3    34  SER34       0.2116
     58  OG       -74.8340    4.3650   93.4330 O.3    34  SER34      -0.2180
     59  N        -76.4900   -1.4020   91.5470 N.3    37  PHE37      -0.1227
     60  CA       -75.9630   -1.2520   90.2130 C.3    37  PHE37       0.1736
     61  C        -74.4510   -1.4630   90.1890 C.2    37  PHE37       0.2595
     62  O        -73.9360   -2.2920   89.4320 O.2    37  PHE37      -0.2718
     63  CB       -76.3180    0.1300   89.6670 C.3    37  PHE37       0.0547
     64  CG       -75.7880    0.3790   88.2990 C.ar   37  PHE37      -0.0202
     65  CD1      -76.3780   -0.2220   87.1970 C.ar   37  PHE37      -0.0042
     66  CD2      -74.6650    1.1910   88.1110 C.ar   37  PHE37      -0.0042
     67  CE1      -75.8750    0.0070   85.9190 C.ar   37  PHE37      -0.0003
     68  CE2      -74.1490    1.4140   86.8360 C.ar   37  PHE37      -0.0003
     69  CZ       -74.7490    0.8300   85.7410 C.ar   37  PHE37      -0.0000
     70  N        -73.7660   -0.6910   91.0320 N.am   38  LEU38      -0.1980
     71  CA       -72.3120   -0.6550   91.1070 C.3    38  LEU38       0.1596
     72  C        -71.6730   -1.9660   91.5600 C.2    38  LEU38       0.2287
     73  O        -70.6400   -2.3650   91.0220 O.2    38  LEU38      -0.2864
     74  CB       -71.8550    0.5090   92.0040 C.3    38  LEU38       0.0297
     75  CG       -72.1450    1.9300   91.4890 C.3    38  LEU38       0.0022
     76  CD1      -71.6960    2.9970   92.4870 C.3    38  LEU38       0.0001
     77  CD2      -71.5110    2.1930   90.1370 C.3    38  LEU38       0.0001
     78  N        -68.0100    6.4020   87.6390 N.3   153  LEU153     -0.1245
     79  CA       -68.9830    5.7410   88.5140 C.3   153  LEU153      0.1561
     80  C        -68.7080    5.9690   89.9910 C.2   153  LEU153      0.2260
     81  O        -69.6080    6.3380   90.7260 O.2   153  LEU153     -0.2867
     82  CB       -69.0790    4.2440   88.2450 C.3   153  LEU153      0.0270
     83  CG       -69.3800    3.8100   86.8130 C.3   153  LEU153      0.0019
     84  CD1      -69.3720    2.3100   86.7710 C.3   153  LEU153      0.0001
     85  CD2      -70.6830    4.3550   86.2570 C.3   153  LEU153      0.0001
     86  N        -69.5250    9.4400   91.2960 N.3   156  GLN156     -0.1231
     87  CA       -70.9400    9.7710   91.4320 C.3   156  GLN156      0.1698
     88  C        -71.4330    9.2620   92.7690 C.2   156  GLN156      0.2592
     89  O        -71.9630   10.0160   93.5830 O.2   156  GLN156     -0.2718
     90  CB       -71.7670    9.2330   90.2740 C.3   156  GLN156      0.0381
     91  CG       -71.5770   10.0090   88.9950 C.3   156  GLN156      0.0905
     92  CD       -71.9080   11.5180   89.1360 C.2   156  GLN156      0.2608
     93  OE1      -71.0150   12.3590   89.0820 O.2   156  GLN156     -0.2717
     94  NE2      -73.1900   11.8470   89.3290 N.am  156  GLN156     -0.0878
     95  N        -71.1920    7.9950   93.0380 N.am  157  HIS157     -0.1976
     96  CA       -71.6420    7.4290   94.2870 C.3   157  HIS157      0.1656
     97  C        -71.0710    8.1550   95.5310 C.2   157  HIS157      0.2291
     98  O        -71.8240    8.5490   96.4210 O.2   157  HIS157     -0.2864
     99  CB       -71.3200    5.9470   94.3060 C.3   157  HIS157      0.0771
    100  CG       -71.9650    5.2060   95.4300 C.ar  157  HIS157      0.0820
    101  ND1      -73.1620    4.5420   95.2870 N.ar  157  HIS157     -0.2267
    102  CD2      -71.5750    5.0120   96.7100 C.ar  157  HIS157      0.1154
    103  CE1      -73.4830    3.9670   96.4310 C.ar  157  HIS157      0.1986
    104  NE2      -72.5360    4.2390   97.3110 N.ar  157  HIS157     -0.2212
    105  N        -72.3690   11.6990   95.9110 N.3   160  LEU160     -0.1245
    106  CA       -73.7670   11.7030   96.2800 C.3   160  LEU160      0.1561
    107  C        -74.0110   11.2460   97.6960 C.2   160  LEU160      0.2260
    108  O        -74.7610   11.8780   98.4220 O.2   160  LEU160     -0.2867
    109  CB       -74.5670   10.8450   95.3190 C.3   160  LEU160      0.0270
    110  CG       -74.8120   11.5220   93.9740 C.3   160  LEU160      0.0019
    111  CD1      -75.2930   10.4920   92.9530 C.3   160  LEU160      0.0001
    112  CD2      -75.8040   12.6810   94.1440 C.3   160  LEU160      0.0001
@<TRIPOS>BOND
     1    10     9    2
     2     9     8    1
     3     7     8    1
     4     3     2    1
     5     3     4    2
     6     2     1    1
     7     2     5    1
     8    22    21    2
     9     8    11    1
    10    21    23   am
    11    21    20    1
    12     6     5    1
    13    20    19    1
    14    15    16    1
    15    11    12    1
    16    19    16    1
    17    13    12    1
    18    16    17    1
    19    12    14    1
    20    33    31   ar
    21    33    34   ar
    22    31    29   ar
    23    24    17   am
    24    24    25    1
    25    34    32   ar
    26    17    18    2
    27    29    28    1
    28    29    30   ar
    29    28    25    1
    30    69    67   ar
    31    69    68   ar
    32    25    26    1
    33    67    65   ar
    34    32    30   ar
    35    85    83    1
    36    26    27    2
    37    84    83    1
    38    83    82    1
    39    68    66   ar
    40    65    64   ar
    41    78    79    1
    42    35    36    1
    43    66    64   ar
    44    82    79    1
    45    64    63    1
    46    79    80    1
    47    39    36    1
    48    39    40    1
    49    91    92    1
    50    91    90    1
    51    93    92    2
    52    36    37    1
    53    92    94   am
    54    62    61    2
    55    63    60    1
    56    80    81    2
    57    77    75    1
    58    61    60    1
    59    61    70   am
    60    60    59    1
    61    40    41   ar
    62    40    42   ar
    63    37    38    2
    64    90    87    1
    65    41    43   ar
    66    42    44   ar
    67    73    72    2
    68    70    71    1
    69    71    72    1
    70    71    74    1
    71    86    87    1
    72    87    88    1
    73    75    74    1
    74    75    76    1
    75    52    50    1
    76    43    45   ar
    77    44    45   ar
    78    49    48    2
    79    56    55    2
    80    88    95   am
    81    88    89    2
    82   111   110    1
    83    95    96    1
    84    50    51    1
    85    50    47    1
    86    54    55    1
    87    54    53    1
    88    54    57    1
    89    48    53   am
    90    48    47    1
    91    58    57    1
    92    47    46    1
    93   110   112    1
    94   110   109    1
    95    96    99    1
    96    96    97    1
    97    99   100    1
    98   101   100   ar
    99   101   103   ar
   100   109   106    1
   101   100   102   ar
   102    97    98    2
   103   105   106    1
   104   106   107    1
   105   103   104   ar
   106   102   104   ar
   107   107   108    2
