@<TRIPOS>MOLECULE
tmp/1y8rE00.pdb
 205 194 0 0 0
SMALL
GASTEIGER

@<TRIPOS>ATOM
      1  N         43.9890   70.0220    3.9990 N.3    21  GLY21      -0.1210
      2  CA        42.7080   70.5270    4.4780 C.3    21  GLY21       0.1956
      3  C         42.0390   69.5630    5.4550 C.2    21  GLY21       0.2612
      4  O         41.8620   68.3730    5.1650 O.2    21  GLY21      -0.2717
      5  N         41.6640   70.0610    6.6250 N.am   22  ALA22      -0.1965
      6  CA        41.0570   69.1920    7.6000 C.3    22  ALA22       0.1728
      7  C         39.7420   69.7700    8.0140 C.2    22  ALA22       0.2617
      8  O         39.3790   69.7170    9.1800 O.2    22  ALA22      -0.2715
      9  CB        41.9560   69.0490    8.7770 C.3    22  ALA22       0.0334
     10  N         39.0190   70.3240    7.0490 N.am   23  GLY23      -0.1940
     11  CA        37.7290   70.9200    7.3400 C.3    23  GLY23       0.2014
     12  C         36.6280   69.9130    7.1140 C.2    23  GLY23       0.2639
     13  O         36.7200   68.7580    7.5490 O.2    23  GLY23      -0.2714
     14  N         35.5850   70.3420    6.4160 N.am   24  GLY24      -0.1939
     15  CA        34.4750   69.4480    6.1490 C.3    24  GLY24       0.2014
     16  C         34.9560   68.2510    5.3640 C.2    24  GLY24       0.2638
     17  O         35.0620   67.1390    5.8920 O.2    24  GLY24      -0.2714
     18  N         35.2490   68.4790    4.0920 N.am   25  ILE25      -0.1977
     19  CA        35.7300   67.4180    3.2220 C.3    25  ILE25       0.1596
     20  C         36.8870   66.6650    3.8700 C.2    25  ILE25       0.2287
     21  O         36.9460   65.4380    3.8200 O.2    25  ILE25      -0.2864
     22  CB        36.1700   68.0250    1.8980 C.3    25  ILE25       0.0276
     23  CG1       34.9710   68.7220    1.2720 C.3    25  ILE25       0.0022
     24  CG2       36.7730   66.9620    0.9960 C.3    25  ILE25       0.0022
     25  CD1       35.2970   69.4450    0.0040 C.3    25  ILE25       0.0001
     26  N         47.2490   68.1190    6.6380 N.3    44  ILE44      -0.1231
     27  CA        47.7440   69.4740    6.8980 C.3    44  ILE44       0.1692
     28  C         46.6410   70.5340    6.9420 C.2    44  ILE44       0.2592
     29  O         45.8480   70.6440    6.0130 O.2    44  ILE44      -0.2718
     30  CB        48.7830   69.9250    5.8340 C.3    44  ILE44       0.0266
     31  CG1       49.2750   71.3440    6.1670 C.3    44  ILE44       0.0019
     32  CG2       48.1610   69.8800    4.4380 C.3    44  ILE44       0.0020
     33  CD1       50.2780   71.9230    5.1940 C.3    44  ILE44       0.0001
     34  N         46.5960   71.3140    8.0160 N.am   45  ASP45      -0.1960
     35  CA        45.5860   72.3590    8.1310 C.3    45  ASP45       0.1840
     36  C         46.1650   73.4970    8.9330 C.2    45  ASP45       0.2622
     37  O         46.8620   73.2650    9.9200 O.2    45  ASP45      -0.2715
     38  CB        44.3330   71.8310    8.8250 C.3    45  ASP45       0.1450
     39  CG        43.1410   72.7530    8.6480 C.2    45  ASP45       0.3671
     40  OD1       42.2180   72.4030    7.8770 O.co2  45  ASP45      -0.2456
     41  OD2       43.1300   73.8280    9.2670 O.co2  45  ASP45      -0.2456
     42  N         45.8790   74.7280    8.5290 N.am   46  LEU46      -0.1963
     43  CA        46.4370   75.8690    9.2480 C.3    46  LEU46       0.1728
     44  C         45.5780   76.4310   10.3770 C.2    46  LEU46       0.2616
     45  O         46.0990   76.9060   11.3800 O.2    46  LEU46      -0.2715
     46  CB        46.7850   76.9740    8.2540 C.3    46  LEU46       0.0311
     47  CG        45.6870   77.9540    7.8470 C.3    46  LEU46       0.0022
     48  CD1       45.5710   79.0570    8.9100 C.3    46  LEU46       0.0001
     49  CD2       46.0360   78.5850    6.4970 C.3    46  LEU46       0.0001
     50  N         44.2630   76.3630   10.2250 N.am   47  ASP47      -0.1971
     51  CA        43.3590   76.9020   11.2310 C.3    47  ASP47       0.1709
     52  C         43.1900   76.0170   12.4690 C.2    47  ASP47       0.2293
     53  O         43.7280   74.9210   12.5520 O.2    47  ASP47      -0.2864
     54  CB        41.9940   77.1780   10.5820 C.3    47  ASP47       0.1436
     55  CG        41.2080   78.2890   11.2910 C.2    47  ASP47       0.3671
     56  OD1       40.1320   78.6800   10.7640 O.co2  47  ASP47      -0.2456
     57  OD2       41.6650   78.7660   12.3670 O.co2  47  ASP47      -0.2456
     58  N         31.5660   76.4460   15.4730 N.3    52  SER52      -0.1202
     59  CA        30.6610   76.3400   14.3460 C.3    52  SER52       0.2020
     60  C         31.0690   75.2490   13.3570 C.2    52  SER52       0.2618
     61  O         30.4830   75.1470   12.2820 O.2    52  SER52      -0.2717
     62  CB        30.5250   77.6870   13.6040 C.3    52  SER52       0.2103
     63  OG        31.5870   77.9160   12.6920 O.3    52  SER52      -0.2182
     64  N         32.0580   74.4330   13.6860 N.am   53  ASN53      -0.1974
     65  CA        32.4370   73.3880   12.7450 C.3    53  ASN53       0.1688
     66  C         31.9240   72.0410   13.2040 C.2    53  ASN53       0.2292
     67  O         31.9560   71.0610   12.4590 O.2    53  ASN53      -0.2864
     68  CB        33.9580   73.3030   12.5780 C.3    53  ASN53       0.1181
     69  CG        34.5890   74.6330   12.1760 C.2    53  ASN53       0.2629
     70  OD1       33.9380   75.4880   11.5520 O.2    53  ASN53      -0.2716
     71  ND2       35.8680   74.8060   12.5140 N.am   53  ASN53      -0.0877
     72  N         29.5650   69.4050   11.0240 N.3    56  ARG56      -0.1231
     73  CA        29.9740   68.6480    9.8510 C.3    56  ARG56       0.1694
     74  C         31.3530   68.0050   10.0000 C.2    56  ARG56       0.2591
     75  O         31.6840   67.0530    9.2830 O.2    56  ARG56      -0.2718
     76  CB        29.9900   69.5770    8.6490 C.3    56  ARG56       0.0321
     77  CG        30.9510   70.7220    8.8140 C.3    56  ARG56       0.0489
     78  CD        30.5010   71.9210    8.0060 C.3    56  ARG56       0.2205
     79  NE        31.5510   72.9300    7.8970 N.pl3  56  ARG56      -0.0865
     80  CZ        31.6500   74.0280    8.6420 C.cat  56  ARG56       0.5346
     81  NH1       30.7450   74.2910    9.5800 N.pl3  56  ARG56       0.1354
     82  NH2       32.6770   74.8560    8.4500 N.pl3  56  ARG56       0.1354
     83  N         32.1600   68.5260   10.9180 N.am   57  GLN57      -0.1979
     84  CA        33.5030   68.0000   11.1280 C.3    57  GLN57       0.1601
     85  C         33.4830   67.0390   12.3150 C.2    57  GLN57       0.2287
     86  O         33.9690   67.3660   13.3940 O.2    57  GLN57      -0.2864
     87  CB        34.4700   69.1720   11.3550 C.3    57  GLN57       0.0394
     88  CG        34.4840   70.1620   10.1760 C.3    57  GLN57       0.0908
     89  CD        35.5690   71.2390   10.2630 C.2    57  GLN57       0.2608
     90  OE1       36.6590   71.0020   10.7860 O.2    57  GLN57      -0.2717
     91  NE2       35.2800   72.4200    9.7220 N.am   57  GLN57      -0.0878
     92  N         43.3560   71.7540   14.2480 N.3    69  LYS69      -0.1245
     93  CA        42.5430   70.8760   13.4210 C.3    69  LYS69       0.1561
     94  C         43.3970   69.6710   13.0450 C.2    69  LYS69       0.2260
     95  O         43.0380   68.5240   13.3260 O.2    69  LYS69      -0.2867
     96  CB        42.0800   71.5830   12.1460 C.3    69  LYS69       0.0271
     97  CG        40.8790   72.4820   12.3370 C.3    69  LYS69       0.0035
     98  CD        40.2980   72.9550   11.0060 C.3    69  LYS69       0.0206
     99  CE        38.9020   73.5360   11.2060 C.3    69  LYS69       0.1093
    100  NZ        38.2840   74.0970    9.9720 N.3    69  LYS69      -0.1314
    101  N         50.0310   73.8400    9.9990 N.3    91  ASP91      -0.1225
    102  CA        50.7140   74.8690    9.2470 C.3    91  ASP91       0.1805
    103  C         49.9630   75.1080    7.9470 C.2    91  ASP91       0.2598
    104  O         48.8910   74.5490    7.7300 O.2    91  ASP91      -0.2718
    105  CB        52.1490   74.3720    9.0080 C.3    91  ASP91       0.1424
    106  CG        53.1500   75.4870    8.8250 C.2    91  ASP91       0.3668
    107  OD1       53.1940   76.4110    9.6690 O.co2  91  ASP91      -0.2456
    108  OD2       53.9130   75.4260    7.8400 O.co2  91  ASP91      -0.2456
    109  N         50.5180   75.9400    7.0830 N.am   92  SER92      -0.1938
    110  CA        49.8760   76.2580    5.8130 C.3    92  SER92       0.2055
    111  C         50.6490   75.6620    4.6330 C.2    92  SER92       0.2643
    112  O         51.8550   75.8410    4.5500 O.2    92  SER92      -0.2714
    113  CB        49.8100   77.7810    5.6920 C.3    92  SER92       0.2130
    114  OG        49.7840   78.2000    4.3430 O.3    92  SER92      -0.2179
    115  N         49.9910   74.9580    3.7160 N.am   93  ILE93      -0.1963
    116  CA        50.7580   74.4070    2.5820 C.3    93  ILE93       0.1727
    117  C         51.4310   75.4540    1.7180 C.2    93  ILE93       0.2616
    118  O         52.1260   75.1110    0.7710 O.2    93  ILE93      -0.2715
    119  CB        49.9310   73.5470    1.6110 C.3    93  ILE93       0.0290
    120  CG1       48.4660   73.9300    1.7140 C.3    93  ILE93       0.0022
    121  CG2       50.2790   72.0780    1.7770 C.3    93  ILE93       0.0023
    122  CD1       48.1390   75.1510    0.9020 C.3    93  ILE93       0.0001
    123  N         51.2240   76.7290    2.0310 N.am   94  MET94      -0.1977
    124  CA        51.8540   77.7800    1.2490 C.3    94  MET94       0.1605
    125  C         53.1990   78.1270    1.8490 C.2    94  MET94       0.2287
    126  O         53.9190   78.9760    1.3270 O.2    94  MET94      -0.2864
    127  CB        50.9850   79.0080    1.2070 C.3    94  MET94       0.0413
    128  CG        49.5910   78.7310    0.7530 C.3    94  MET94       0.0598
    129  SD        48.9730   80.1820   -0.0430 S.3    94  MET94      -0.1393
    130  CE        48.5940   79.5480   -1.6750 C.3    94  MET94       0.0692
    131  N         41.3690   69.8530   -0.1810 N.3   112  ALA112     -0.1231
    132  CA        40.1510   69.9370    0.5770 C.3   112  ALA112      0.1694
    133  C         40.1510   71.3480    1.1310 C.2   112  ALA112      0.2592
    134  O         39.8530   71.5790    2.3030 O.2   112  ALA112     -0.2718
    135  CB        40.1620   68.9080    1.6820 C.3   112  ALA112      0.0304
    136  N         40.4820   72.2920    0.2540 N.am  113  LEU113     -0.1966
    137  CA        40.5740   73.7100    0.6050 C.3   113  LEU113      0.1728
    138  C         39.2980   74.5290    0.3530 C.2   113  LEU113      0.2616
    139  O         38.3100   74.0390   -0.1960 O.2   113  LEU113     -0.2715
    140  CB        41.7470   74.3290   -0.1580 C.3   113  LEU113      0.0311
    141  CG        43.0600   73.5470   -0.0640 C.3   113  LEU113      0.0022
    142  CD1       43.9460   73.9410   -1.2350 C.3   113  LEU113      0.0001
    143  CD2       43.7510   73.7910    1.2550 C.3   113  LEU113      0.0001
    144  N         39.3330   75.7880    0.7570 N.am  114  ASP114     -0.1957
    145  CA        38.1820   76.6530    0.5930 C.3   114  ASP114      0.1840
    146  C         38.6570   77.9840    0.0920 C.2   114  ASP114      0.2622
    147  O         37.9060   78.9530   -0.0110 O.2   114  ASP114     -0.2715
    148  CB        37.4770   76.8240    1.9370 C.3   114  ASP114      0.1450
    149  CG        38.3890   77.4120    3.0260 C.2   114  ASP114      0.3671
    150  OD1       37.8870   77.5520    4.1710 O.co2 114  ASP114     -0.2456
    151  OD2       39.5810   77.7320    2.7450 O.co2 114  ASP114     -0.2456
    152  N         39.9270   77.9890   -0.2440 N.am  115  ASN115     -0.1972
    153  CA        40.6160   79.1550   -0.7100 C.3   115  ASN115      0.1688
    154  C         41.2220   78.9190   -2.0980 C.2   115  ASN115      0.2292
    155  O         41.9620   77.9510   -2.2840 O.2   115  ASN115     -0.2864
    156  CB        41.7230   79.4210    0.2740 C.3   115  ASN115      0.1181
    157  CG        42.7670   80.2650   -0.3100 C.2   115  ASN115      0.2629
    158  OD1       43.9540   80.1480    0.0090 O.2   115  ASN115     -0.2716
    159  ND2       42.3360   81.1550   -1.2040 N.am  115  ASN115     -0.0877
    160  N         45.4230   78.8950   -2.2880 N.3   118  ALA118     -0.1245
    161  CA        46.0400   77.6260   -1.9520 C.3   118  ALA118      0.1562
    162  C         45.8060   76.5930   -3.0600 C.2   118  ALA118      0.2260
    163  O         46.6680   75.7560   -3.3160 O.2   118  ALA118     -0.2867
    164  CB        45.5020   77.1140   -0.6020 C.3   118  ALA118      0.0290
    165  N         35.8760   86.7950   11.1870 N.3   310  LYS310     -0.1231
    166  CA        34.4150   86.7660   11.2290 C.3   310  LYS310      0.1693
    167  C         33.8190   86.0500   12.4520 C.2   310  LYS310      0.2592
    168  O         32.7000   86.3630   12.8840 O.2   310  LYS310     -0.2718
    169  CB        33.8740   86.1090    9.9550 C.3   310  LYS310      0.0285
    170  CG        34.2010   84.6260    9.8330 C.3   310  LYS310      0.0035
    171  CD        33.6400   84.0490    8.5500 C.3   310  LYS310      0.0206
    172  CE        33.8150   82.5400    8.4860 C.3   310  LYS310      0.1093
    173  NZ        35.2250   82.0980    8.6850 N.3   310  LYS310     -0.1314
    174  N         34.5680   85.0980   13.0020 N.am  311  ASP311     -0.1974
    175  CA        34.1180   84.3210   14.1530 C.3   311  ASP311      0.1709
    176  C         34.3410   84.9860   15.5000 C.2   311  ASP311      0.2293
    177  O         33.8040   84.5300   16.5110 O.2   311  ASP311     -0.2864
    178  CB        34.8070   82.9600   14.1540 C.3   311  ASP311      0.1436
    179  CG        34.5040   82.1620   12.9110 C.2   311  ASP311      0.3671
    180  OD1       33.3110   81.8590   12.6980 O.co2 311  ASP311     -0.2456
    181  OD2       35.4530   81.8470   12.1500 O.co2 311  ASP311     -0.2456
    182  N         30.5610   83.9860    4.3850 N.3   347  ILE347     -0.1231
    183  CA        30.3740   82.6420    4.9080 C.3   347  ILE347      0.1692
    184  C         29.6370   81.7250    3.9340 C.2   347  ILE347      0.2591
    185  O         28.5800   82.0730    3.4180 O.2   347  ILE347     -0.2718
    186  CB        29.6320   82.7020    6.2510 C.3   347  ILE347      0.0266
    187  CG1       30.3170   83.7270    7.1490 C.3   347  ILE347      0.0019
    188  CG2       29.6760   81.3470    6.9560 C.3   347  ILE347      0.0020
    189  CD1       29.5560   84.0080    8.3990 C.3   347  ILE347      0.0001
    190  N         30.2190   80.5540    3.6820 N.am  348  ILE348     -0.1980
    191  CA        29.6240   79.5790    2.7740 C.3   348  ILE348      0.1595
    192  C         28.8570   78.5160    3.5550 C.2   348  ILE348      0.2287
    193  O         29.4680   77.7070    4.2540 O.2   348  ILE348     -0.2864
    194  CB        30.6900   78.8610    1.9240 C.3   348  ILE348      0.0276
    195  CG1       31.3570   79.8590    0.9740 C.3   348  ILE348      0.0022
    196  CG2       30.0510   77.6950    1.1530 C.3   348  ILE348      0.0022
    197  CD1       32.5070   79.2830    0.1490 C.3   348  ILE348      0.0001
    198  N         29.2890   67.1940    2.1000 N.3   355  ASN355     -0.1240
    199  CA        30.7020   66.8900    2.2500 C.3   355  ASN355      0.1653
    200  C         30.9810   65.4080    2.3370 C.2   355  ASN355      0.2266
    201  O         31.9180   64.9100    1.7290 O.2   355  ASN355     -0.2867
    202  CB        31.2610   67.6240    3.4530 C.3   355  ASN355      0.1155
    203  CG        31.3820   69.1060    3.1950 C.2   355  ASN355      0.2627
    204  OD1       32.1470   69.5340    2.3410 O.2   355  ASN355     -0.2716
    205  ND2       30.6090   69.8980    3.9200 N.am  355  ASN355     -0.0877
@<TRIPOS>BOND
     1   163   162    2
     2   162   161    1
     3   160   161    1
     4   155   154    2
     5   154   153    1
     6   161   164    1
     7   130   129    1
     8   142   141    1
     9   159   157   am
    10   153   152    1
    11   153   156    1
    12   157   158    2
    13   157   156    1
    14   152   146   am
    15   139   138    2
    16   131   132    1
    17   140   141    1
    18   140   137    1
    19   141   143    1
    20   129   128    1
    21   147   146    2
    22    25    23    1
    23   146   145    1
    24   197   195    1
    25   136   137    1
    26   136   133   am
    27   138   137    1
    28   138   144   am
    29   132   133    1
    30   132   135    1
    31   145   144    1
    32   145   148    1
    33   128   127    1
    34   118   117    2
    35   122   120    1
    36   195   194    1
    37    24    22    1
    38   133   134    2
    39   196   194    1
    40   127   124    1
    41   124   125    1
    42   124   123    1
    43    23    22    1
    44   126   125    2
    45   119   120    1
    46   119   121    1
    47   119   116    1
    48   117   123   am
    49   117   116    1
    50   201   200    2
    51    22    19    1
    52   194   191    1
    53   148   149    1
    54   198   199    1
    55   199   200    1
    56   199   202    1
    57   204   203    2
    58   116   115    1
    59   151   149   ar
    60   191   192    1
    61   191   190    1
    62   149   150   ar
    63   203   202    1
    64   203   205   am
    65    19    20    1
    66    19    18    1
    67   185   184    2
    68   192   193    2
    69   190   184   am
    70   115   111   am
    71    21    20    2
    72   184   183    1
    73     1     2    1
    74    18    16   am
    75   114   113    1
    76   182   183    1
    77    32    30    1
    78     2     3    1
    79   112   111    2
    80   111   110    1
    81   183   186    1
    82     4     3    2
    83    33    31    1
    84    16    17    2
    85    16    15    1
    86     3     5   am
    87   113   110    1
    88   110   109    1
    89    30    31    1
    90    30    27    1
    91    29    28    2
    92    15    14    1
    93   186   188    1
    94   186   187    1
    95    14    12   am
    96    49    47    1
    97     5     6    1
    98    26    27    1
    99    27    28    1
   100    28    34   am
   101    10    11    1
   102    10     7   am
   103   109   103   am
   104    12    11    1
   105    12    13    2
   106   187   189    1
   107     6     7    1
   108     6     9    1
   109   104   103    2
   110   108   106   ar
   111    47    46    1
   112    47    48    1
   113    40    39   ar
   114    79    78    1
   115    79    80    2
   116   103   102    1
   117    78    77    1
   118     7     8    2
   119    34    35    1
   120    35    38    1
   121    35    36    1
   122    46    43    1
   123    82    80    1
   124   172   171    1
   125   172   173    1
   126    42    36   am
   127    42    43    1
   128   171   170    1
   129    80    81    1
   130    39    38    1
   131    39    41   ar
   132    76    77    1
   133    76    73    1
   134   106   105    1
   135   106   107   ar
   136    36    37    2
   137   105   102    1
   138   102   101    1
   139    43    44    1
   140    75    74    2
   141    91    89   am
   142   170   169    1
   143    73    74    1
   144    73    72    1
   145   169   166    1
   146   100    99    1
   147    74    83   am
   148    88    89    1
   149    88    87    1
   150    50    44   am
   151    50    51    1
   152    89    90    2
   153    44    45    2
   154    54    51    1
   155    54    55    1
   156    56    55   ar
   157    83    84    1
   158    98    99    1
   159    98    97    1
   160    84    87    1
   161    84    85    1
   162   165   166    1
   163   166   167    1
   164    51    52    1
   165    55    57   ar
   166    70    69    2
   167    96    97    1
   168    96    93    1
   169   181   179   ar
   170    69    71   am
   171    69    68    1
   172    61    60    2
   173    85    86    2
   174   167   168    2
   175   167   174   am
   176    67    66    2
   177    52    53    2
   178    68    65    1
   179    63    62    1
   180   180   179   ar
   181    65    66    1
   182    65    64    1
   183   179   178    1
   184   174   175    1
   185    94    95    2
   186    94    93    1
   187    60    64   am
   188    60    59    1
   189    93    92    1
   190    62    59    1
   191   175   178    1
   192   175   176    1
   193    59    58    1
   194   176   177    2
