@<TRIPOS>MOLECULE
tmp/1y8yA00.pdb
 157 149 0 0 0
SMALL
GASTEIGER

@<TRIPOS>ATOM
      1  N         26.8070   23.3260   32.5110 N.3    10  ILE10      -0.1231
      2  CA        25.7270   23.7430   31.6350 C.3    10  ILE10       0.1692
      3  C         26.1530   23.5260   30.1900 C.2    10  ILE10       0.2592
      4  O         25.5940   24.1440   29.2630 O.2    10  ILE10      -0.2718
      5  CB        25.2830   25.2380   31.8890 C.3    10  ILE10       0.0266
      6  CG1       26.3960   26.2270   31.5010 C.3    10  ILE10       0.0019
      7  CG2       24.8030   25.4280   33.3060 C.3    10  ILE10       0.0020
      8  CD1       26.2560   27.6280   32.0700 C.3    10  ILE10       0.0001
      9  N         27.1440   22.6610   29.9960 N.am   11  GLY11      -0.1957
     10  CA        27.5570   22.2930   28.6510 C.3    11  GLY11       0.1869
     11  C         28.9950   21.8220   28.4920 C.2    11  GLY11       0.2309
     12  O         29.8990   22.2390   29.2420 O.2    11  GLY11      -0.2863
     13  N         30.9230   22.5970   25.6290 N.3    13  GLY13      -0.1225
     14  CA        31.0040   23.3740   24.4060 C.3    13  GLY13       0.1811
     15  C         32.1380   22.9130   23.5050 C.2    13  GLY13       0.2280
     16  O         32.8670   21.9650   23.8120 O.2    13  GLY13      -0.2866
     17  N         31.5940   24.2650   29.9820 N.3    18  VAL18      -0.1245
     18  CA        30.9370   25.5050   30.3420 C.3    18  VAL18       0.1561
     19  C         30.2200   25.3200   31.6660 C.2    18  VAL18       0.2260
     20  O         29.3820   24.4150   31.8190 O.2    18  VAL18      -0.2867
     21  CB        29.9060   25.9370   29.3010 C.3    18  VAL18       0.0252
     22  CG1       29.3430   27.2800   29.7230 C.3    18  VAL18       0.0019
     23  CG2       30.5160   25.9730   27.8810 C.3    18  VAL18       0.0019
     24  N         28.4320   32.6570   33.1560 N.3    31  ALA31      -0.1245
     25  CA        28.7830   31.4500   32.4300 C.3    31  ALA31       0.1562
     26  C         30.3080   31.4320   32.3040 C.2    31  ALA31       0.2260
     27  O         30.8950   32.4050   31.8020 O.2    31  ALA31      -0.2867
     28  CB        28.1300   31.4450   30.9870 C.3    31  ALA31       0.0290
     29  N         33.6330   29.5300   30.7980 N.3    33  LYS33      -0.1245
     30  CA        34.1080   28.5780   29.7890 C.3    33  LYS33       0.1561
     31  C         35.5730   28.3010   29.9480 C.2    33  LYS33       0.2260
     32  O         36.3680   29.2260   29.9240 O.2    33  LYS33      -0.2867
     33  CB        33.8160   29.0790   28.3760 C.3    33  LYS33       0.0271
     34  CG        32.3830   29.4560   28.2260 C.3    33  LYS33       0.0035
     35  CD        31.8620   29.3230   26.8370 C.3    33  LYS33       0.0206
     36  CE        30.4570   29.8850   26.7870 C.3    33  LYS33       0.1093
     37  NZ        29.7300   29.5470   25.4920 N.3    33  LYS33      -0.1314
     38  N         25.8830   37.9350   23.4700 N.3    58  VAL58      -0.1245
     39  CA        26.2150   37.5770   24.8920 C.3    58  VAL58       0.1561
     40  C         27.5060   38.2910   25.2620 C.2    58  VAL58       0.2260
     41  O         28.5770   38.0390   24.6300 O.2    58  VAL58      -0.2867
     42  CB        26.4070   36.0280   25.1250 C.3    58  VAL58       0.0252
     43  CG1       26.7600   35.7130   26.6430 C.3    58  VAL58       0.0019
     44  CG2       25.1750   35.2510   24.7210 C.3    58  VAL58       0.0019
     45  N         31.3290   35.0240   30.8480 N.3    74  PHE74      -0.1227
     46  CA        30.2770   35.6220   30.0520 C.3    74  PHE74       0.1736
     47  C         29.0770   35.9380   30.9270 C.2    74  PHE74       0.2595
     48  O         28.8880   35.3260   32.0030 O.2    74  PHE74      -0.2718
     49  CB        29.7890   34.6490   28.9640 C.3    74  PHE74       0.0547
     50  CG        30.7090   34.5210   27.7710 C.ar   74  PHE74      -0.0202
     51  CD1       30.6480   35.4610   26.7000 C.ar   74  PHE74      -0.0042
     52  CD2       31.5560   33.4190   27.6590 C.ar   74  PHE74      -0.0042
     53  CE1       31.4740   35.3110   25.5790 C.ar   74  PHE74      -0.0003
     54  CE2       32.4110   33.2660   26.5400 C.ar   74  PHE74      -0.0003
     55  CZ        32.3340   34.1750   25.4860 C.ar   74  PHE74      -0.0000
     56  N         28.3100   36.9180   30.4730 N.am   75  GLU75      -0.1965
     57  CA        26.9140   37.1460   30.8650 C.3    75  GLU75       0.1733
     58  C         26.1890   35.7870   30.8430 C.2    75  GLU75       0.2616
     59  O         26.2530   35.0680   29.8760 O.2    75  GLU75      -0.2715
     60  CB        26.2790   38.0100   29.7560 C.3    75  GLU75       0.0429
     61  CG        24.7750   38.1420   29.9090 C.3    75  GLU75       0.1163
     62  CD        24.0950   38.9180   28.7800 C.2    75  GLU75       0.3649
     63  OE1       24.7230   39.2300   27.7340 O.co2  75  GLU75      -0.2457
     64  OE2       22.8820   39.1700   28.9330 O.co2  75  GLU75      -0.2457
     65  N         25.4530   35.4540   31.8720 N.am   76  PHE76      -0.1960
     66  CA        24.7310   34.1780   31.8870 C.3    76  PHE76       0.1771
     67  C         23.3250   34.3070   31.3570 C.2    76  PHE76       0.2619
     68  O         22.6500   35.2230   31.7580 O.2    76  PHE76      -0.2715
     69  CB        24.6930   33.6550   33.3330 C.3    76  PHE76       0.0574
     70  CG        23.9910   32.3430   33.4960 C.ar   76  PHE76      -0.0200
     71  CD1       22.6960   32.3050   33.9100 C.ar   76  PHE76      -0.0042
     72  CD2       24.6620   31.1350   33.2430 C.ar   76  PHE76      -0.0042
     73  CE1       22.0360   31.0490   34.0840 C.ar   76  PHE76      -0.0003
     74  CE2       24.0170   29.9050   33.3950 C.ar   76  PHE76      -0.0003
     75  CZ        22.6950   29.8710   33.8120 C.ar   76  PHE76      -0.0000
     76  N         22.8970   33.3760   30.4730 N.am   77  LEU77      -0.1963
     77  CA        21.5000   33.2200   30.0910 C.3    77  LEU77       0.1728
     78  C         21.0330   31.7950   30.4570 C.2    77  LEU77       0.2616
     79  O         21.8160   30.8220   30.4300 O.2    77  LEU77      -0.2715
     80  CB        21.2300   33.5290   28.6020 C.3    77  LEU77       0.0311
     81  CG        21.4050   35.0260   28.2820 C.3    77  LEU77       0.0022
     82  CD1       22.9420   35.3270   27.9500 C.3    77  LEU77       0.0001
     83  CD2       20.4960   35.5760   27.1870 C.3    77  LEU77       0.0001
     84  N         19.7720   31.6990   30.8250 N.am   78  HIS78      -0.1959
     85  CA        19.2140   30.4660   31.3580 C.3    78  HIS78       0.1787
     86  C         18.7800   29.4050   30.3790 C.2    78  HIS78       0.2620
     87  O         18.4530   28.2730   30.7890 O.2    78  HIS78      -0.2715
     88  CB        18.0060   30.8840   32.1410 C.3    78  HIS78       0.0785
     89  CG        18.3500   31.5840   33.4040 C.ar   78  HIS78       0.0821
     90  ND1       18.7240   32.9230   33.4490 N.ar   78  HIS78      -0.2267
     91  CD2       18.3530   31.1350   34.6830 C.ar   78  HIS78       0.1154
     92  CE1       18.9260   33.2680   34.7100 C.ar   78  HIS78       0.1986
     93  NE2       18.6990   32.2060   35.4780 N.ar   78  HIS78      -0.2212
     94  N         18.7140   29.7260   29.0710 N.am   79  GLN79      -0.1963
     95  CA        18.0570   28.7790   28.1390 C.3    79  GLN79       0.1733
     96  C         18.5320   28.9790   26.7270 C.2    79  GLN79       0.2616
     97  O         18.7970   30.0880   26.3740 O.2    79  GLN79      -0.2715
     98  CB        16.5290   28.9120   28.2140 C.3    79  GLN79       0.0408
     99  CG        15.7920   27.6420   27.5770 C.3    79  GLN79       0.0908
    100  CD        14.3540   27.5280   28.0240 C.2    79  GLN79       0.2608
    101  OE1       14.0760   27.3920   29.2370 O.2    79  GLN79      -0.2717
    102  NE2       13.4210   27.5590   27.0620 N.am   79  GLN79      -0.0878
    103  N         18.7020   27.9020   25.9460 N.am   80  ASP80      -0.1971
    104  CA        19.0480   28.0190   24.5030 C.3    80  ASP80       0.1709
    105  C         17.8810   27.7090   23.6060 C.2    80  ASP80       0.2293
    106  O         16.8200   27.3150   24.0870 O.2    80  ASP80      -0.2864
    107  CB        20.2780   27.2080   24.0820 C.3    80  ASP80       0.1436
    108  CG        20.0830   25.6820   24.2470 C.2    80  ASP80       0.3671
    109  OD1       19.0290   25.1330   23.8210 O.co2  80  ASP80      -0.2456
    110  OD2       20.9590   24.9810   24.7710 O.co2  80  ASP80      -0.2456
    111  N         16.4500   23.6570   23.4850 N.3    83  LYS83      -0.1245
    112  CA        15.5440   23.4460   24.6110 C.3    83  LYS83       0.1561
    113  C         14.2140   24.1170   24.3750 C.2    83  LYS83       0.2260
    114  O         13.1560   23.4770   24.5390 O.2    83  LYS83      -0.2867
    115  CB        16.1330   23.9730   25.9280 C.3    83  LYS83       0.0271
    116  CG        15.1770   23.7680   27.1520 C.3    83  LYS83       0.0035
    117  CD        15.9550   23.5460   28.4540 C.3    83  LYS83       0.0206
    118  CE        15.0530   23.3500   29.6770 C.3    83  LYS83       0.1093
    119  NZ        15.9300   23.2600   30.9390 N.3    83  LYS83      -0.1314
    120  N         22.2730   25.7490   19.7830 N.3   125  GLN125     -0.1231
    121  CA        22.9570   25.7220   21.0980 C.3   125  GLN125      0.1698
    122  C         23.7150   26.9560   21.5280 C.2   125  GLN125      0.2592
    123  O         24.0610   27.1290   22.7240 O.2   125  GLN125     -0.2718
    124  CB        23.8470   24.4760   21.2480 C.3   125  GLN125      0.0381
    125  CG        23.0260   23.2470   21.6950 C.3   125  GLN125      0.0905
    126  CD        23.8480   21.9330   21.6720 C.2   125  GLN125      0.2608
    127  OE1       24.9530   21.8920   21.0900 O.2   125  GLN125     -0.2717
    128  NE2       23.3020   20.8520   22.3130 N.am  125  GLN125     -0.0878
    129  N         23.9490   27.8450   20.5900 N.am  126  ASN126     -0.1974
    130  CA        24.5870   29.1140   20.9700 C.3   126  ASN126      0.1688
    131  C         23.7190   30.3420   20.7250 C.2   126  ASN126      0.2292
    132  O         24.2150   31.4320   20.5590 O.2   126  ASN126     -0.2864
    133  CB        26.0010   29.2560   20.3810 C.3   126  ASN126      0.1181
    134  CG        26.0640   29.0190   18.9240 C.2   126  ASN126      0.2629
    135  OD1       25.0700   29.2980   18.1480 O.2   126  ASN126     -0.2716
    136  ND2       27.2670   28.5160   18.4670 N.am  126  ASN126     -0.0877
    137  N         20.8910   32.0580   22.8000 N.3   128  LEU128     -0.1245
    138  CA        20.3480   31.9550   24.1450 C.3   128  LEU128      0.1561
    139  C         19.2790   33.0110   24.4190 C.2   128  LEU128      0.2260
    140  O         19.3770   34.1110   23.8950 O.2   128  LEU128     -0.2867
    141  CB        21.4630   32.0520   25.1930 C.3   128  LEU128      0.0270
    142  CG        22.7040   31.1410   24.9860 C.3   128  LEU128      0.0019
    143  CD1       23.7020   31.5750   26.0080 C.3   128  LEU128      0.0001
    144  CD2       22.3020   29.7440   25.2940 C.3   128  LEU128      0.0001
    145  N         25.8710   33.5130   21.3240 N.3   138  ALA138     -0.1231
    146  CA        26.9750   33.1640   22.2260 C.3   138  ALA138      0.1694
    147  C         28.1890   32.8140   21.4000 C.2   138  ALA138      0.2592
    148  O         28.0250   32.2930   20.2910 O.2   138  ALA138     -0.2718
    149  CB        26.6320   31.9530   23.0250 C.3   138  ALA138      0.0304
    150  N         29.4010   33.0150   21.9430 N.am  139  ASP139     -0.1974
    151  CA        30.6290   32.5470   21.2690 C.3   139  ASP139      0.1709
    152  C         30.9950   33.2480   19.9850 C.2   139  ASP139      0.2293
    153  O         31.7900   32.6970   19.1950 O.2   139  ASP139     -0.2864
    154  CB        30.6240   31.0280   21.0110 C.3   139  ASP139      0.1436
    155  CG        30.5550   30.2070   22.3080 C.2   139  ASP139      0.3671
    156  OD1       30.4510   30.7780   23.4110 O.co2 139  ASP139     -0.2456
    157  OD2       30.6020   28.9580   22.3270 O.co2 139  ASP139     -0.2456
@<TRIPOS>BOND
     1   135   134    2
     2   136   134   am
     3   134   133    1
     4   153   152    2
     5   120   121    1
     6   152   151    1
     7   148   147    2
     8   133   130    1
     9   132   131    2
    10   129   130    1
    11   129   122   am
    12   131   130    1
    13   154   151    1
    14   154   155    1
    15   127   126    2
    16   121   124    1
    17   121   122    1
    18   124   125    1
    19   151   150    1
    20   145   146    1
    21   147   150   am
    22   147   146    1
    23   122   123    2
    24   126   125    1
    25   126   128   am
    26   146   149    1
    27   155   157   ar
    28   155   156   ar
    29   137   138    1
    30    38    39    1
    31   111   112    1
    32    15    16    2
    33    15    14    1
    34   105   106    2
    35   105   104    1
    36   109   108   ar
    37   140   139    2
    38   107   108    1
    39   107   104    1
    40   138   139    1
    41   138   141    1
    42   108   110   ar
    43   113   114    2
    44   113   112    1
    45    14    13    1
    46   104   103    1
    47   112   115    1
    48    41    40    2
    49    44    42    1
    50    39    42    1
    51    39    40    1
    52   142   141    1
    53   142   144    1
    54   142   143    1
    55    42    43    1
    56    55    53   ar
    57    55    54   ar
    58    37    36    1
    59    53    51   ar
    60   115   116    1
    61   103    96   am
    62    97    96    2
    63    54    52   ar
    64    51    50   ar
    65    96    95    1
    66    36    35    1
    67    35    34    1
    68   102   100   am
    69   116   117    1
    70    83    81    1
    71    99   100    1
    72    99    98    1
    73    52    50   ar
    74    63    62   ar
    75    50    49    1
    76    23    21    1
    77    82    81    1
    78   100   101    2
    79    95    98    1
    80    95    94    1
    81    34    33    1
    82    81    80    1
    83    33    30    1
    84   117   118    1
    85    11    10    1
    86    11    12    2
    87    80    77    1
    88    10     9    1
    89    62    64   ar
    90    62    61    1
    91    49    46    1
    92    94    86   am
    93     4     3    2
    94    21    22    1
    95    21    18    1
    96   118   119    1
    97    60    61    1
    98    60    57    1
    99    30    31    1
   100    30    29    1
   101    59    58    2
   102    32    31    2
   103    17    18    1
   104     9     3   am
   105    46    45    1
   106    46    47    1
   107    77    78    1
   108    77    76    1
   109     3     2    1
   110    18    19    1
   111    86    87    2
   112    86    85    1
   113    79    78    2
   114    78    84   am
   115    76    67   am
   116    56    57    1
   117    56    47   am
   118    84    85    1
   119    58    57    1
   120    58    65   am
   121    47    48    2
   122    28    25    1
   123    67    68    2
   124    67    66    1
   125    85    88    1
   126     6     5    1
   127     6     8    1
   128     2     5    1
   129     2     1    1
   130    19    20    2
   131    27    26    2
   132    65    66    1
   133    66    69    1
   134     5     7    1
   135    88    89    1
   136    26    25    1
   137    25    24    1
   138    72    74   ar
   139    72    70   ar
   140    69    70    1
   141    74    75   ar
   142    89    90   ar
   143    89    91   ar
   144    90    92   ar
   145    70    71   ar
   146    75    73   ar
   147    71    73   ar
   148    91    93   ar
   149    92    93   ar
