@<TRIPOS>MOLECULE
tmp/1y91A00.pdb
 205 197 0 0 0
SMALL
GASTEIGER

@<TRIPOS>ATOM
      1  N         -1.2480   57.8980    0.5470 N.3     9  LYS9       -0.1231
      2  CA        -1.5220   57.8880    1.9820 C.3     9  LYS9        0.1693
      3  C         -0.2790   58.2090    2.8050 C.2     9  LYS9        0.2592
      4  O          0.7050   57.4740    2.7130 O.2     9  LYS9       -0.2718
      5  CB        -2.0120   56.5010    2.4170 C.3     9  LYS9        0.0285
      6  CG        -2.5560   56.4690    3.8650 C.3     9  LYS9        0.0035
      7  CD        -2.9880   55.0820    4.3410 C.3     9  LYS9        0.0206
      8  CE        -3.0650   55.0230    5.8770 C.3     9  LYS9        0.1093
      9  NZ        -3.3130   53.6460    6.4790 N.3     9  LYS9       -0.1314
     10  N         -0.3320   59.2880    3.6070 N.am   10  ILE10      -0.1966
     11  CA         0.7940   59.6900    4.4850 C.3    10  ILE10       0.1727
     12  C          0.6040   59.2690    5.9320 C.2    10  ILE10       0.2617
     13  O          1.4810   59.5320    6.7820 O.2    10  ILE10      -0.2715
     14  CB         1.0930   61.2640    4.5610 C.3    10  ILE10       0.0290
     15  CG1        0.0930   62.1640    3.8660 C.3    10  ILE10       0.0022
     16  CG2        2.4570   61.5740    4.0720 C.3    10  ILE10       0.0023
     17  CD1        0.2370   63.6120    4.2560 C.3    10  ILE10       0.0001
     18  N         -0.5400   58.6800    6.2430 N.am   11  GLY11      -0.1940
     19  CA        -0.8750   58.4560    7.6380 C.3    11  GLY11       0.2014
     20  C         -2.3060   58.0310    7.8320 C.2    11  GLY11       0.2639
     21  O         -3.1050   58.0380    6.8900 O.2    11  GLY11      -0.2714
     22  N         -2.6130   57.6670    9.0610 N.am   12  GLU12      -0.1963
     23  CA        -3.9200   57.2200    9.4440 C.3    12  GLU12       0.1733
     24  C         -3.9740   57.5210   10.9250 C.2    12  GLU12       0.2616
     25  O         -2.9740   57.3660   11.6540 O.2    12  GLU12      -0.2715
     26  CB        -4.1350   55.7230    9.1530 C.3    12  GLU12       0.0429
     27  CG        -3.5430   54.7610   10.1930 C.3    12  GLU12       0.1163
     28  CD        -3.3070   53.3360    9.6920 C.2    12  GLU12       0.3649
     29  OE1       -3.7410   52.9950    8.5670 O.co2  12  GLU12      -0.2457
     30  OE2       -2.6760   52.5520   10.4400 O.co2  12  GLU12      -0.2457
     31  N         -5.1330   57.9960   11.3650 N.am   13  GLY13      -0.1955
     32  CA        -5.3590   58.2490   12.7660 C.3    13  GLY13       0.1869
     33  C         -6.5590   57.4770   13.2970 C.2    13  GLY13       0.2309
     34  O         -7.0730   56.5320   12.6760 O.2    13  GLY13      -0.2863
     35  N         -9.1860   58.9060   13.7960 N.3    15  TYR15      -0.1241
     36  CA       -10.2490   59.6850   13.1460 C.3    15  TYR15       0.1605
     37  C        -10.3950   59.4170   11.6570 C.2    15  TYR15       0.2264
     38  O        -11.5010   59.1640   11.1660 O.2    15  TYR15      -0.2867
     39  CB       -10.0490   61.2170   13.3220 C.3    15  TYR15       0.0534
     40  CG        -9.1490   61.7060   14.4360 C.ar   15  TYR15      -0.0201
     41  CD1       -9.6850   62.4180   15.5080 C.ar   15  TYR15      -0.0009
     42  CD2       -7.7630   61.5090   14.3960 C.ar   15  TYR15      -0.0009
     43  CE1       -8.8750   62.9000   16.5400 C.ar   15  TYR15       0.0417
     44  CE2       -6.9410   61.9790   15.4260 C.ar   15  TYR15       0.0417
     45  CZ        -7.5050   62.6860   16.4990 C.ar   15  TYR15       0.1957
     46  OH        -6.7090   63.1840   17.5340 O.3    15  TYR15      -0.2866
     47  N         -5.0990   60.0520    6.0450 N.3    18  VAL18      -0.1245
     48  CA        -4.4710   61.2810    5.5370 C.3    18  VAL18       0.1561
     49  C         -3.7390   61.0150    4.2550 C.2    18  VAL18       0.2260
     50  O         -2.8490   60.1450    4.1740 O.2    18  VAL18      -0.2867
     51  CB        -3.4770   61.8340    6.5650 C.3    18  VAL18       0.0252
     52  CG1       -2.6660   62.9640    5.9940 C.3    18  VAL18       0.0019
     53  CG2       -4.2000   62.2540    7.8270 C.3    18  VAL18       0.0019
     54  N         -2.1900   68.3260    2.5710 N.3    31  ALA31      -0.1245
     55  CA        -2.5170   67.0860    3.2480 C.3    31  ALA31       0.1562
     56  C         -4.0320   67.0870    3.4530 C.2    31  ALA31       0.2260
     57  O         -4.6520   68.1170    3.7950 O.2    31  ALA31      -0.2867
     58  CB        -1.7660   67.0090    4.5760 C.3    31  ALA31       0.0290
     59  N         -7.0980   65.2140    5.2460 N.3    33  LYS33      -0.1245
     60  CA        -7.6210   64.2840    6.2220 C.3    33  LYS33       0.1561
     61  C         -9.1160   64.0060    5.9280 C.2    33  LYS33       0.2260
     62  O         -9.9140   64.9640    5.8230 O.2    33  LYS33      -0.2867
     63  CB        -7.4400   64.8630    7.6150 C.3    33  LYS33       0.0271
     64  CG        -7.6240   63.8940    8.7120 C.3    33  LYS33       0.0035
     65  CD        -7.6610   64.6330   10.0320 C.3    33  LYS33       0.0206
     66  CE        -7.9430   63.6910   11.2580 C.3    33  LYS33       0.1093
     67  NZ        -7.0570   62.4720   11.2600 N.3    33  LYS33      -0.1314
     68  N          0.4140   73.1720   12.4260 N.3    57  VAL57      -0.1245
     69  CA         0.1710   72.8690   11.0290 C.3    57  VAL57       0.1561
     70  C         -1.0970   73.6250   10.6720 C.2    57  VAL57       0.2260
     71  O         -2.0520   73.5890   11.4440 O.2    57  VAL57      -0.2867
     72  CB        -0.0800   71.3640   10.7570 C.3    57  VAL57       0.0252
     73  CG1       -0.4400   71.1450    9.2910 C.3    57  VAL57       0.0019
     74  CG2        1.1680   70.5050   11.0820 C.3    57  VAL57       0.0019
     75  N         -5.0120   70.6940    4.7780 N.3    73  PHE73      -0.1227
     76  CA        -4.0030   71.2040    5.6950 C.3    73  PHE73       0.1736
     77  C         -2.7980   71.5590    4.8790 C.2    73  PHE73       0.2595
     78  O         -2.5970   71.0330    3.7810 O.2    73  PHE73      -0.2718
     79  CB        -3.6000   70.1430    6.7280 C.3    73  PHE73       0.0547
     80  CG        -4.5360   70.0050    7.9090 C.ar   73  PHE73      -0.0202
     81  CD1       -4.3960   70.8300    9.0390 C.ar   73  PHE73      -0.0042
     82  CD2       -5.4580   68.9720    7.9540 C.ar   73  PHE73      -0.0042
     83  CE1       -5.2000   70.6570   10.1170 C.ar   73  PHE73      -0.0003
     84  CE2       -6.3000   68.7830    9.0390 C.ar   73  PHE73      -0.0003
     85  CZ        -6.2000   69.5920   10.1170 C.ar   73  PHE73      -0.0000
     86  N         -1.9740   72.4250    5.4420 N.am   74  GLU74      -0.1965
     87  CA        -0.6170   72.5790    4.9870 C.3    74  GLU74       0.1733
     88  C          0.0420   71.1700    5.0350 C.2    74  GLU74       0.2616
     89  O         -0.3410   70.3460    5.8270 O.2    74  GLU74      -0.2715
     90  CB         0.0410   73.6080    5.9090 C.3    74  GLU74       0.0429
     91  CG         1.5630   73.7520    5.8060 C.3    74  GLU74       0.1163
     92  CD         2.1860   74.3150    7.0810 C.2    74  GLU74       0.3649
     93  OE1        1.4890   74.4530    8.0640 O.co2  74  GLU74      -0.2457
     94  OE2        3.3810   74.6530    7.1000 O.co2  74  GLU74      -0.2457
     95  N          1.0190   70.8830    4.1800 N.am   75  PHE75      -0.1960
     96  CA         1.6440   69.5560    4.0920 C.3    75  PHE75       0.1771
     97  C          3.1110   69.6820    4.5720 C.2    75  PHE75       0.2619
     98  O          3.7960   70.6400    4.2000 O.2    75  PHE75      -0.2715
     99  CB         1.6190   69.0960    2.6060 C.3    75  PHE75       0.0574
    100  CG         2.4460   67.8980    2.3450 C.ar   75  PHE75      -0.0200
    101  CD1        3.7760   68.0240    2.0030 C.ar   75  PHE75      -0.0042
    102  CD2        1.9080   66.6320    2.4860 C.ar   75  PHE75      -0.0042
    103  CE1        4.5870   66.8660    1.8310 C.ar   75  PHE75      -0.0003
    104  CE2        2.6860   65.4750    2.3030 C.ar   75  PHE75      -0.0003
    105  CZ         4.0340   65.5920    1.9590 C.ar   75  PHE75      -0.0000
    106  N          3.5630   68.7430    5.4180 N.am   76  LEU76      -0.1963
    107  CA         4.9030   68.6890    5.9270 C.3    76  LEU76       0.1728
    108  C          5.4270   67.3250    5.5050 C.2    76  LEU76       0.2616
    109  O          4.6250   66.3880    5.3470 O.2    76  LEU76      -0.2715
    110  CB         4.8820   68.8660    7.4540 C.3    76  LEU76       0.0311
    111  CG         4.7900   70.3670    7.6960 C.3    76  LEU76       0.0022
    112  CD1        3.2860   70.8730    7.7520 C.3    76  LEU76       0.0001
    113  CD2        5.5390   70.8210    8.8940 C.3    76  LEU76       0.0001
    114  N          6.7370   67.2100    5.2910 N.am   77  HIS77      -0.1959
    115  CA         7.3440   66.0140    4.6770 C.3    77  HIS77       0.1787
    116  C          7.7680   64.8850    5.5860 C.2    77  HIS77       0.2620
    117  O          8.1420   63.8360    5.1240 O.2    77  HIS77      -0.2715
    118  CB         8.5710   66.4030    3.8610 C.3    77  HIS77       0.0785
    119  CG         8.2620   67.1500    2.5780 C.ar   77  HIS77       0.0821
    120  ND1        7.8810   68.4870    2.5530 N.ar   77  HIS77      -0.2267
    121  CD2        8.3200   66.7520    1.2830 C.ar   77  HIS77       0.1154
    122  CE1        7.7040   68.8710    1.2990 C.ar   77  HIS77       0.1986
    123  NE2        7.9910   67.8470    0.5040 N.ar   77  HIS77      -0.2212
    124  N          7.7340   65.0850    6.8770 N.am   78  GLN78      -0.1963
    125  CA         8.2140   64.0740    7.8020 C.3    78  GLN78       0.1733
    126  C          7.7090   64.4230    9.1750 C.2    78  GLN78       0.2616
    127  O          7.3780   65.5750    9.4450 O.2    78  GLN78      -0.2715
    128  CB         9.7050   64.1190    7.8190 C.3    78  GLN78       0.0408
    129  CG        10.3300   62.8910    8.3340 C.3    78  GLN78       0.0908
    130  CD        11.7910   62.9200    8.0590 C.2    78  GLN78       0.2608
    131  OE1       12.2360   62.6450    6.9180 O.2    78  GLN78      -0.2717
    132  NE2       12.5640   63.2620    9.0750 N.am   78  GLN78      -0.0878
    133  N          7.6780   63.4150   10.0450 N.am   79  ASP79      -0.1971
    134  CA         7.2410   63.5500   11.4610 C.3    79  ASP79       0.1709
    135  C          8.4350   63.2640   12.3680 C.2    79  ASP79       0.2293
    136  O          9.4990   62.7790   11.8650 O.2    79  ASP79      -0.2864
    137  CB         6.0080   62.6410   11.7600 C.3    79  ASP79       0.1436
    138  CG         6.3210   61.1290   11.7130 C.2    79  ASP79       0.3671
    139  OD1        7.4720   60.7100   11.8530 O.co2  79  ASP79      -0.2456
    140  OD2        5.4600   60.2550   11.6240 O.co2  79  ASP79      -0.2456
    141  N          8.9000   61.1770   14.7190 N.3    81  LYS81      -0.1231
    142  CA         9.2000   59.7850   14.9730 C.3    81  LYS81       0.1693
    143  C         10.2040   59.2320   13.9350 C.2    81  LYS81       0.2591
    144  O         11.2490   58.6440   14.2910 O.2    81  LYS81      -0.2718
    145  CB         7.8990   59.0070   14.9470 C.3    81  LYS81       0.0285
    146  CG         7.9870   57.6560   15.5640 C.3    81  LYS81       0.0035
    147  CD         6.6280   57.0440   15.4570 C.3    81  LYS81       0.0206
    148  CE         6.6100   55.9170   14.4200 C.3    81  LYS81       0.1093
    149  NZ         5.8670   54.7640   15.0220 N.3    81  LYS81      -0.1314
    150  N          9.8980   59.4390   12.6570 N.am   82  LYS82      -0.1980
    151  CA        10.7550   58.9880   11.5770 C.3    82  LYS82       0.1596
    152  C         12.0920   59.6720   11.6840 C.2    82  LYS82       0.2287
    153  O         13.1290   59.0910   11.3780 O.2    82  LYS82      -0.2864
    154  CB        10.0780   59.2860   10.2350 C.3    82  LYS82       0.0298
    155  CG        11.0280   59.4510    9.0470 C.3    82  LYS82       0.0038
    156  CD        10.3650   59.1240    7.6840 C.3    82  LYS82       0.0206
    157  CE        11.3010   59.3980    6.4620 C.3    82  LYS82       0.1093
    158  NZ        10.6520   58.9630    5.1560 N.3    82  LYS82      -0.1314
    159  N          2.2850   63.5860   20.5850 N.3   122  LYS122     -0.1245
    160  CA         3.0680   62.3480   20.4780 C.3   122  LYS122      0.1561
    161  C          3.9180   62.5410   19.2900 C.2   122  LYS122      0.2260
    162  O          3.5910   63.3740   18.4540 O.2   122  LYS122     -0.2867
    163  CB         2.2020   61.0790   20.3520 C.3   122  LYS122      0.0271
    164  CG         1.1080   61.0400   19.2810 C.3   122  LYS122      0.0035
    165  CD         0.2140   59.8280   19.6180 C.3   122  LYS122      0.0206
    166  CE        -0.4660   59.2640   18.4130 C.3   122  LYS122      0.1093
    167  NZ        -1.4430   60.2290   18.0000 N.3   122  LYS122     -0.1314
    168  N          4.2540   61.3770   16.5150 N.3   124  GLN124     -0.1231
    169  CA         3.8140   61.3500   15.1400 C.3   124  GLN124      0.1698
    170  C          2.8460   62.4490   14.8360 C.2   124  GLN124      0.2592
    171  O          2.5740   62.6440   13.6660 O.2   124  GLN124     -0.2718
    172  CB         3.2190   60.0210   14.7630 C.3   124  GLN124      0.0381
    173  CG         2.3240   59.5680   15.7800 C.3   124  GLN124      0.0905
    174  CD         2.7360   58.2170   16.2670 C.2   124  GLN124      0.2608
    175  OE1        3.4580   58.0660   17.3210 O.2   124  GLN124     -0.2717
    176  NE2        2.2850   57.2170   15.5230 N.am  124  GLN124     -0.0878
    177  N          2.3610   63.1440   15.8740 N.am  125  ASN125     -0.1974
    178  CA         1.6130   64.3820   15.7460 C.3   125  ASN125      0.1688
    179  C          2.5350   65.5780   15.6810 C.2   125  ASN125      0.2292
    180  O          2.1000   66.6630   15.8530 O.2   125  ASN125     -0.2864
    181  CB         0.6670   64.5900   16.9340 C.3   125  ASN125      0.1181
    182  CG        -0.6730   63.8240   16.7970 C.2   125  ASN125      0.2629
    183  OD1       -1.0520   63.3470   15.7330 O.2   125  ASN125     -0.2716
    184  ND2       -1.3830   63.7010   17.9090 N.am  125  ASN125     -0.0877
    185  N          5.2950   67.6360   13.2600 N.3   127  LEU127     -0.1245
    186  CA         5.8610   67.5330   11.9250 C.3   127  LEU127      0.1561
    187  C          6.9920   68.4910   11.6820 C.2   127  LEU127      0.2260
    188  O          6.9750   69.6270   12.1850 O.2   127  LEU127     -0.2867
    189  CB         4.8150   67.6790   10.8260 C.3   127  LEU127      0.0270
    190  CG         3.5450   66.8350   10.9730 C.3   127  LEU127      0.0019
    191  CD1        2.5140   67.3220    9.9460 C.3   127  LEU127      0.0001
    192  CD2        3.8480   65.3840   10.7200 C.3   127  LEU127      0.0001
    193  N          0.5250   69.1320   15.2190 N.3   137  ALA137     -0.1231
    194  CA        -0.3320   68.6940   14.1300 C.3   137  ALA137      0.1694
    195  C         -1.5540   67.9940   14.6680 C.2   137  ALA137      0.2592
    196  O         -1.4710   67.3080   15.7240 O.2   137  ALA137     -0.2718
    197  CB         0.4350   67.7370   13.2480 C.3   137  ALA137      0.0304
    198  N         -2.6600   68.1230   13.9470 N.am  138  ASP138     -0.1974
    199  CA        -3.8860   67.3550   14.2190 C.3   138  ASP138      0.1709
    200  C         -4.4230   67.6670   15.6020 C.2   138  ASP138      0.2293
    201  O         -4.5160   66.8340   16.4810 O.2   138  ASP138     -0.2864
    202  CB        -3.5720   65.8870   14.1530 C.3   138  ASP138      0.1436
    203  CG        -4.7280   65.0760   13.7050 C.2   138  ASP138      0.3671
    204  OD1       -5.5070   65.5890   12.8820 O.co2 138  ASP138     -0.2456
    205  OD2       -4.9180   63.9020   14.1150 O.co2 138  ASP138     -0.2456
@<TRIPOS>BOND
     1   123   121   ar
     2   123   122   ar
     3     1     2    1
     4   121   119   ar
     5   122   120   ar
     6   103   105   ar
     7   103   101   ar
     8   105   104   ar
     9     2     5    1
    10     2     3    1
    11   101   100   ar
    12   104   102   ar
    13   100   102   ar
    14   100    99    1
    15     5     6    1
    16   120   119   ar
    17    54    55    1
    18   119   118    1
    19    99    96    1
    20     4     3    2
    21     3    10   am
    22    55    56    1
    23    55    58    1
    24    56    57    2
    25    10    11    1
    26    78    77    2
    27   118   115    1
    28     6     7    1
    29    15    17    1
    30    15    14    1
    31    16    14    1
    32    96    95    1
    33    96    97    1
    34    50    49    2
    35    95    88   am
    36    98    97    2
    37    49    48    1
    38     7     8    1
    39    11    14    1
    40    11    12    1
    41    97   106   am
    42   115   114    1
    43   115   116    1
    44    75    76    1
    45    77    86   am
    46    77    76    1
    47    87    88    1
    48    87    86    1
    49    87    90    1
    50    88    89    2
    51   117   116    2
    52   158   157    1
    53    59    60    1
    54   114   108   am
    55   109   108    2
    56   106   107    1
    57   108   107    1
    58    48    47    1
    59    48    51    1
    60   116   124   am
    61    76    79    1
    62    91    90    1
    63    91    92    1
    64    62    61    2
    65     8     9    1
    66   107   110    1
    67    61    60    1
    68    12    18   am
    69    12    13    2
    70    52    51    1
    71    60    63    1
    72    18    19    1
    73   157   156    1
    74    51    53    1
    75    79    80    1
    76   124   125    1
    77    21    20    2
    78   131   130    2
    79    92    94   ar
    80    92    93   ar
    81   110   111    1
    82    63    64    1
    83    19    20    1
    84   156   155    1
    85   111   112    1
    86   111   113    1
    87   125   128    1
    88   125   126    1
    89   128   129    1
    90    20    22   am
    91    80    82   ar
    92    80    81   ar
    93    82    84   ar
    94   130   129    1
    95   130   132   am
    96    29    28   ar
    97    64    65    1
    98    81    83   ar
    99    84    85   ar
   100   155   154    1
   101    22    23    1
   102    26    23    1
   103    26    27    1
   104   126   127    2
   105   126   133   am
   106    73    72    1
   107    23    24    1
   108    28    27    1
   109    28    30   ar
   110   191   190    1
   111    65    66    1
   112   133   134    1
   113    85    83   ar
   114   154   151    1
   115    70    69    1
   116    70    71    2
   117   192   190    1
   118    72    69    1
   119    72    74    1
   120   189   190    1
   121   189   186    1
   122    24    31   am
   123    24    25    2
   124    69    68    1
   125    38    37    2
   126    66    67    1
   127    31    32    1
   128   153   152    2
   129   134   137    1
   130   134   135    1
   131   151   152    1
   132   151   150    1
   133   140   138   ar
   134    37    36    1
   135   187   186    1
   136   187   188    2
   137   138   137    1
   138   138   139   ar
   139   136   135    2
   140   186   185    1
   141   150   143   am
   142    34    33    2
   143    32    33    1
   144   204   203   ar
   145    36    39    1
   146    36    35    1
   147   197   194    1
   148    39    40    1
   149   171   170    2
   150   203   205   ar
   151   203   202    1
   152   143   144    2
   153   143   142    1
   154   198   199    1
   155   198   195   am
   156   194   195    1
   157   194   193    1
   158   202   199    1
   159   199   200    1
   160    42    40   ar
   161    42    44   ar
   162   148   149    1
   163   148   147    1
   164    40    41   ar
   165   195   196    2
   166   141   142    1
   167   172   169    1
   168   172   173    1
   169   170   169    1
   170   170   177   am
   171   145   142    1
   172   145   146    1
   173   169   168    1
   174    44    45   ar
   175   147   146    1
   176    41    43   ar
   177   176   174   am
   178   200   201    2
   179   179   178    1
   180   179   180    2
   181   183   182    2
   182   178   177    1
   183   178   181    1
   184   173   174    1
   185   174   175    2
   186    45    43   ar
   187    45    46    1
   188   182   181    1
   189   182   184   am
   190   167   166    1
   191   166   165    1
   192   162   161    2
   193   164   165    1
   194   164   163    1
   195   161   160    1
   196   163   160    1
   197   160   159    1
