@<TRIPOS>MOLECULE
tmp/1y98A00.pdb
 197 190 0 0 0
SMALL
GASTEIGER

@<TRIPOS>ATOM
      1  N        -30.0570   43.7490    3.0580 N.3     6  VAL6       -0.1231
      2  CA       -30.8750   44.7590    2.4010 C.3     6  VAL6        0.1692
      3  C        -30.2460   46.1210    2.4910 C.2     6  VAL6        0.2593
      4  O        -29.4920   46.4050    3.4330 O.2     6  VAL6       -0.2718
      5  CB       -32.2960   44.8470    3.0090 C.3     6  VAL6        0.0266
      6  CG1      -33.0120   43.4760    2.8790 C.3     6  VAL6        0.0020
      7  CG2      -32.2590   45.3190    4.4590 C.3     6  VAL6        0.0020
      8  N        -30.5970   47.0020    1.5620 N.am    7  SER7       -0.1938
      9  CA       -30.0430   48.3070    1.6650 C.3     7  SER7        0.2055
     10  C        -31.0590   49.3720    1.3630 C.2     7  SER7        0.2644
     11  O        -31.7170   49.3510    0.3570 O.2     7  SER7       -0.2714
     12  CB       -28.8190   48.4330    0.7790 C.3     7  SER7        0.2130
     13  OG       -28.0580   49.5550    1.1690 O.3     7  SER7       -0.2179
     14  N        -31.1710   50.3180    2.2670 N.am    8  GLY8       -0.1939
     15  CA       -31.9940   51.4820    2.0460 C.3     8  GLY8        0.2014
     16  C        -33.4740   51.1980    2.1520 C.2     8  GLY8        0.2639
     17  O        -34.2640   51.9020    1.5370 O.2     8  GLY8       -0.2714
     18  N        -33.8330   50.1720    2.9140 N.am    9  LEU9       -0.1963
     19  CA       -35.2080   49.7630    3.0890 C.3     9  LEU9        0.1728
     20  C        -35.6420   50.3040    4.4010 C.2     9  LEU9        0.2617
     21  O        -34.8160   50.5070    5.2820 O.2     9  LEU9       -0.2715
     22  CB       -35.3560   48.2520    3.1620 C.3     9  LEU9        0.0311
     23  CG       -34.8220   47.4120    2.0260 C.3     9  LEU9        0.0022
     24  CD1      -35.6130   46.1270    1.9510 C.3     9  LEU9        0.0001
     25  CD2      -34.8900   48.1590    0.6950 C.3     9  LEU9        0.0001
     26  N        -36.9500   50.5230    4.5280 N.am   10  THR10      -0.1937
     27  CA       -37.5480   51.0130    5.7370 C.3    10  THR10       0.2013
     28  C        -37.8410   49.7330    6.4780 C.2    10  THR10       0.2484
     29  O        -37.7030   48.6250    5.8980 O.2    10  THR10      -0.2729
     30  CB       -38.9050   51.7120    5.4610 C.3    10  THR10       0.1807
     31  OG1      -39.7770   50.7830    4.8080 O.3    10  THR10      -0.2208
     32  CG2      -38.7540   52.9720    4.6040 C.3    10  THR10       0.0379
     33  N        -38.2200   49.8710    7.7690 N.am   11  PRO11      -0.2726
     34  CA       -38.6700   48.7460    8.5490 C.3    11  PRO11       0.1402
     35  C        -39.8190   47.9990    7.8930 C.2    11  PRO11       0.2269
     36  O        -39.7990   46.7790    7.8640 O.2    11  PRO11      -0.2865
     37  CB       -39.0820   49.3920    9.8680 C.3    11  PRO11       0.0296
     38  CG       -38.2500   50.6290    9.9790 C.3    11  PRO11       0.0237
     39  CD       -38.1460   51.1180    8.5760 C.3    11  PRO11       0.0939
     40  N        -40.4220   47.7980    4.8230 N.3    13  GLU13      -0.1245
     41  CA       -39.8620   47.1230    3.6610 C.3    13  GLU13       0.1567
     42  C        -39.0580   45.9020    4.0930 C.2    13  GLU13       0.2260
     43  O        -39.1940   44.8320    3.5260 O.2    13  GLU13      -0.2867
     44  CB       -39.0680   48.0880    2.7800 C.3    13  GLU13       0.0388
     45  CG       -39.9660   48.9960    1.8920 C.3    13  GLU13       0.1160
     46  CD       -39.2790   50.3060    1.4500 C.2    13  GLU13       0.3649
     47  OE1      -38.1760   50.6180    1.9570 O.co2  13  GLU13      -0.2457
     48  OE2      -39.8220   51.0280    0.5850 O.co2  13  GLU13      -0.2457
     49  N        -33.2130   49.0310   -2.2590 N.3    42  LYS42      -0.1245
     50  CA       -34.1860   50.0360   -2.6630 C.3    42  LYS42       0.1561
     51  C        -33.7110   50.6270   -4.0010 C.2    42  LYS42       0.2260
     52  O        -32.5550   51.0230   -4.1220 O.2    42  LYS42      -0.2867
     53  CB       -34.2530   51.1380   -1.6240 C.3    42  LYS42       0.0271
     54  CG       -35.2750   52.2340   -1.9330 C.3    42  LYS42       0.0035
     55  CD       -36.7310   51.7220   -1.9880 C.3    42  LYS42       0.0206
     56  CE       -37.7330   52.8500   -1.7550 C.3    42  LYS42       0.1093
     57  NZ       -39.1090   52.5000   -2.1820 N.3    42  LYS42      -0.1314
     58  N        -29.3920   53.9180   -5.0180 N.3    50  GLU50      -0.1231
     59  CA       -28.3430   54.7220   -4.5310 C.3    50  GLU50       0.1699
     60  C        -27.1280   53.8580   -4.2460 C.2    50  GLU50       0.2592
     61  O        -27.2400   52.6180   -4.1270 O.2    50  GLU50      -0.2718
     62  CB       -28.8120   55.3970   -3.2970 C.3    50  GLU50       0.0402
     63  CG       -30.0140   56.2710   -3.5570 C.3    50  GLU50       0.1161
     64  CD       -29.9880   57.4450   -2.6460 C.2    50  GLU50       0.3649
     65  OE1      -30.5000   57.3420   -1.5070 O.co2  50  GLU50      -0.2457
     66  OE2      -29.3670   58.4510   -3.0430 O.co2  50  GLU50      -0.2457
     67  N        -25.9670   54.5290   -4.1690 N.am   51  ARG51      -0.1966
     68  CA       -24.6840   53.8930   -3.8170 C.3    51  ARG51       0.1729
     69  C        -24.4690   53.7390   -2.3170 C.2    51  ARG51       0.2617
     70  O        -24.2050   54.7240   -1.6090 O.2    51  ARG51      -0.2715
     71  CB       -23.5070   54.6590   -4.4200 C.3    51  ARG51       0.0348
     72  CG       -23.5730   54.7800   -5.9200 C.3    51  ARG51       0.0492
     73  CD       -22.2160   54.9500   -6.5020 C.3    51  ARG51       0.2205
     74  NE       -21.4320   55.9560   -5.7770 N.pl3  51  ARG51      -0.0865
     75  CZ       -20.2970   56.4790   -6.2280 C.cat  51  ARG51       0.5346
     76  NH1      -19.8220   56.1030   -7.4030 N.pl3  51  ARG51       0.1354
     77  NH2      -19.6450   57.3870   -5.5080 N.pl3  51  ARG51       0.1354
     78  N        -24.5730   52.4890   -1.8530 N.am   52  THR52      -0.1937
     79  CA       -24.2260   52.1310   -0.4810 C.3    52  THR52       0.2028
     80  C        -23.0690   51.1630   -0.3480 C.2    52  THR52       0.2642
     81  O        -22.7570   50.3800   -1.2480 O.2    52  THR52      -0.2714
     82  CB       -25.4170   51.5480    0.2640 C.3    52  THR52       0.1808
     83  OG1      -25.8650   50.3510   -0.3840 O.3    52  THR52      -0.2208
     84  CG2      -26.5310   52.5850    0.3150 C.3    52  THR52       0.0379
     85  N        -22.4600   51.1990    0.8310 N.am   53  LEU53      -0.1963
     86  CA       -21.4490   50.2310    1.1880 C.3    53  LEU53       0.1728
     87  C        -21.7900   48.8130    0.7460 C.2    53  LEU53       0.2616
     88  O        -20.9610   48.1600    0.1550 O.2    53  LEU53      -0.2715
     89  CB       -21.1410   50.2800    2.6730 C.3    53  LEU53       0.0311
     90  CG       -20.0690   49.2360    3.0810 C.3    53  LEU53       0.0022
     91  CD1      -18.7810   49.2620    2.2360 C.3    53  LEU53       0.0001
     92  CD2      -19.7420   49.3120    4.5720 C.3    53  LEU53       0.0001
     93  N        -22.9910   48.3280    1.0170 N.am   54  LYS54      -0.1977
     94  CA       -23.3530   46.9570    0.5980 C.3    54  LYS54       0.1596
     95  C        -23.4420   46.8180   -0.9080 C.2    54  LYS54       0.2287
     96  O        -23.1500   45.7340   -1.4660 O.2    54  LYS54      -0.2864
     97  CB       -24.6960   46.5190    1.2110 C.3    54  LYS54       0.0298
     98  CG       -24.6700   46.3700    2.7140 C.3    54  LYS54       0.0038
     99  CD       -26.0020   45.9260    3.2120 C.3    54  LYS54       0.0206
    100  CE       -26.0390   45.9890    4.7230 C.3    54  LYS54       0.1093
    101  NZ       -27.4100   45.8930    5.2960 N.3    54  LYS54      -0.1314
    102  N        -21.6510   48.5190   -3.1550 N.3    56  PHE56      -0.1241
    103  CA       -20.2510   48.2630   -3.4650 C.3    56  PHE56       0.1605
    104  C        -19.7980   46.8300   -3.1970 C.2    56  PHE56       0.2264
    105  O        -19.1970   46.1980   -4.0500 O.2    56  PHE56      -0.2867
    106  CB       -19.3440   49.2380   -2.7400 C.3    56  PHE56       0.0534
    107  CG       -19.5470   50.6300   -3.1750 C.ar   56  PHE56      -0.0203
    108  CD1      -19.4690   50.9570   -4.5180 C.ar   56  PHE56      -0.0042
    109  CD2      -19.8830   51.6240   -2.2590 C.ar   56  PHE56      -0.0042
    110  CE1      -19.6890   52.2590   -4.9520 C.ar   56  PHE56      -0.0003
    111  CE2      -20.1090   52.9130   -2.6950 C.ar   56  PHE56      -0.0003
    112  CZ       -20.0030   53.2190   -4.0590 C.ar   56  PHE56      -0.0000
    113  N        -27.4710   56.3630   -8.8750 N.3    92  VAL92      -0.1231
    114  CA       -27.7450   57.7680   -9.1920 C.3    92  VAL92       0.1692
    115  C        -26.4740   58.5480   -9.5330 C.2    92  VAL92       0.2591
    116  O        -26.5500   59.6810  -10.0060 O.2    92  VAL92      -0.2718
    117  CB       -28.5540   58.5330   -8.0830 C.3    92  VAL92       0.0266
    118  CG1      -29.9730   57.9170   -7.8950 C.3    92  VAL92       0.0020
    119  CG2      -27.7590   58.6740   -6.7390 C.3    92  VAL92       0.0020
    120  N        -25.3140   57.9340   -9.2950 N.am   93  VAL93      -0.1980
    121  CA       -24.0540   58.5990   -9.5000 C.3    93  VAL93       0.1595
    122  C        -23.4320   58.0780  -10.8010 C.2    93  VAL93       0.2287
    123  O        -23.0250   58.8610  -11.6430 O.2    93  VAL93      -0.2864
    124  CB       -23.1360   58.4360   -8.2740 C.3    93  VAL93       0.0276
    125  CG1      -21.8330   59.1890   -8.4520 C.3    93  VAL93       0.0022
    126  CG2      -23.8470   58.9130   -7.0190 C.3    93  VAL93       0.0022
    127  N        -14.4700   58.5660    5.7400 N.3   125  THR125     -0.1203
    128  CA       -15.8220   58.6320    6.3320 C.3   125  THR125      0.1994
    129  C        -16.7370   57.4950    5.8660 C.2   125  THR125      0.2618
    130  O        -16.6640   57.0560    4.7130 O.2   125  THR125     -0.2717
    131  CB       -16.5300   59.9780    6.1040 C.3   125  THR125      0.1784
    132  OG1      -16.7970   60.1510    4.7100 O.3   125  THR125     -0.2211
    133  CG2      -15.6930   61.1130    6.5980 C.3   125  THR125      0.0376
    134  N        -17.5670   57.0160    6.7990 N.am  126  ASN126     -0.1960
    135  CA       -18.7230   56.1160    6.5240 C.3   126  ASN126      0.1819
    136  C        -18.3740   54.7510    6.0250 C.2   126  ASN126      0.2621
    137  O        -19.1650   54.1250    5.3140 O.2   126  ASN126     -0.2715
    138  CB       -19.6460   56.7580    5.5070 C.3   126  ASN126      0.1195
    139  CG       -20.2230   58.0440    6.0170 C.2   126  ASN126      0.2630
    140  OD1      -20.1610   59.0670    5.3310 O.2   126  ASN126     -0.2716
    141  ND2      -20.7550   58.0210    7.2540 N.am  126  ASN126     -0.0877
    142  N        -17.1810   54.3020    6.3850 N.am  127  MET127     -0.1977
    143  CA       -16.5720   53.1880    5.7340 C.3   127  MET127      0.1605
    144  C        -15.2910   52.8860    6.4810 C.2   127  MET127      0.2287
    145  O        -14.2820   53.5930    6.3280 O.2   127  MET127     -0.2864
    146  CB       -16.2680   53.5650    4.2870 C.3   127  MET127      0.0413
    147  CG       -15.5390   52.5030    3.5450 C.3   127  MET127      0.0598
    148  SD       -15.4910   52.6660    1.7550 S.3   127  MET127     -0.1393
    149  CE       -17.0740   53.4060    1.3790 C.3   127  MET127      0.0692
    150  N        -10.6630   58.2560   -3.4750 N.3   187  ARG187     -0.1231
    151  CA       -11.5320   57.0830   -3.2690 C.3   187  ARG187      0.1694
    152  C        -12.5980   56.9430   -4.3350 C.2   187  ARG187      0.2591
    153  O        -13.0270   55.8340   -4.6330 O.2   187  ARG187     -0.2718
    154  CB       -12.1700   57.0840   -1.8860 C.3   187  ARG187      0.0321
    155  CG       -12.9800   55.7930   -1.6120 C.3   187  ARG187      0.0489
    156  CD       -13.5770   55.7350   -0.2110 C.3   187  ARG187      0.2205
    157  NE       -14.5250   56.8160    0.0330 N.pl3 187  ARG187     -0.0865
    158  CZ       -15.1420   57.0100    1.1910 C.cat 187  ARG187      0.5346
    159  NH1      -14.9190   56.1850    2.2110 N.pl3 187  ARG187      0.1354
    160  NH2      -15.9880   58.0300    1.3270 N.pl3 187  ARG187      0.1354
    161  N        -13.0090   58.0620   -4.9330 N.am  188  GLU188     -0.1979
    162  CA       -14.0250   58.0330   -5.9850 C.3   188  GLU188      0.1602
    163  C        -13.5770   57.1510   -7.1280 C.2   188  GLU188      0.2287
    164  O        -14.4200   56.5750   -7.8680 O.2   188  GLU188     -0.2864
    165  CB       -14.3030   59.4310   -6.4870 C.3   188  GLU188      0.0415
    166  CG       -15.0690   60.3100   -5.5070 C.3   188  GLU188      0.1163
    167  CD       -16.3850   59.6500   -5.0320 C.2   188  GLU188      0.3649
    168  OE1      -17.0910   59.0420   -5.8690 O.co2 188  GLU188     -0.2457
    169  OE2      -16.7000   59.7260   -3.8160 O.co2 188  GLU188     -0.2457
    170  N        -14.6600   53.6800   -5.9380 N.3   191  LEU191     -0.1231
    171  CA       -16.1100   53.5920   -5.9490 C.3   191  LEU191      0.1693
    172  C        -16.6800   53.5950   -7.3670 C.2   191  LEU191      0.2592
    173  O        -17.4340   52.6770   -7.7180 O.2   191  LEU191     -0.2718
    174  CB       -16.7130   54.6630   -5.0690 C.3   191  LEU191      0.0284
    175  CG       -16.2200   54.6090   -3.6190 C.3   191  LEU191      0.0019
    176  CD1      -17.0190   55.6100   -2.8180 C.3   191  LEU191      0.0001
    177  CD2      -16.3220   53.2220   -3.0080 C.3   191  LEU191      0.0001
    178  N        -16.2770   54.5460   -8.2160 N.am  192  ASP192     -0.1974
    179  CA       -16.7650   54.4920   -9.6040 C.3   192  ASP192      0.1709
    180  C        -16.3030   53.1920  -10.2740 C.2   192  ASP192      0.2293
    181  O        -17.1090   52.5060  -10.9120 O.2   192  ASP192     -0.2864
    182  CB       -16.3630   55.7020  -10.4510 C.3   192  ASP192      0.1436
    183  CG       -16.7640   57.0380   -9.8330 C.2   192  ASP192      0.3671
    184  OD1      -17.6400   57.1020   -8.9460 O.co2 192  ASP192     -0.2456
    185  OD2      -16.1800   58.0560  -10.2510 O.co2 192  ASP192     -0.2456
    186  N         -9.1300   61.3240  -11.4990 N.3   205  TYR205     -0.1241
    187  CA        -9.0520   61.1410  -10.0490 C.3   205  TYR205      0.1605
    188  C         -7.6980   61.4750   -9.4610 C.2   205  TYR205      0.2264
    189  O         -7.5630   61.5030   -8.2360 O.2   205  TYR205     -0.2867
    190  CB        -9.3580   59.7130   -9.7070 C.3   205  TYR205      0.0534
    191  CG       -10.6310   59.2190  -10.3100 C.ar  205  TYR205     -0.0201
    192  CD1      -11.8700   59.5880   -9.7620 C.ar  205  TYR205     -0.0009
    193  CD2      -10.6130   58.3770  -11.4200 C.ar  205  TYR205     -0.0009
    194  CE1      -13.0570   59.1160  -10.3140 C.ar  205  TYR205      0.0417
    195  CE2      -11.7860   57.9060  -11.9830 C.ar  205  TYR205      0.0417
    196  CZ       -13.0040   58.2700  -11.4170 C.ar  205  TYR205      0.1957
    197  OH       -14.1810   57.8140  -11.9540 O.3   205  TYR205     -0.2866
@<TRIPOS>BOND
     1   195   193   ar
     2   195   196   ar
     3   197   196    1
     4   123   122    2
     5   186   187    1
     6   193   191   ar
     7   196   194   ar
     8   181   180    2
     9   122   121    1
    10   182   183    1
    11   182   179    1
    12   194   192   ar
    13   191   192   ar
    14   191   190    1
    15   180   179    1
    16   185   183   ar
    17   187   190    1
    18   187   188    1
    19   116   115    2
    20   183   184   ar
    21   179   178    1
    22   115   120   am
    23   115   114    1
    24   121   120    1
    25   121   124    1
    26   188   189    2
    27   114   113    1
    28   114   117    1
    29   125   124    1
    30   124   126    1
    31   178   172   am
    32   117   118    1
    33   117   119    1
    34   164   163    2
    35   173   172    2
    36    76    75    1
    37   172   171    1
    38   163   162    1
    39    73    72    1
    40    73    74    1
    41   165   162    1
    42   165   166    1
    43    75    74    2
    44    75    77    1
    45   162   161    1
    46   171   170    1
    47   171   174    1
    48    72    71    1
    49   168   167   ar
    50   166   167    1
    51   174   175    1
    52   167   169   ar
    53    58    59    1
    54   110   108   ar
    55   110   112   ar
    56   161   152   am
    57   153   152    2
    58    59    60    1
    59    59    62    1
    60   108   107   ar
    61    71    68    1
    62   152   151    1
    63    60    67   am
    64    60    61    2
    65    67    68    1
    66    52    51    2
    67   112   111   ar
    68   105   104    2
    69    51    50    1
    70    68    69    1
    71   175   177    1
    72   175   176    1
    73    63    62    1
    74    63    64    1
    75   150   151    1
    76   103   104    1
    77   103   102    1
    78   103   106    1
    79   151   154    1
    80   107   106    1
    81   107   109   ar
    82    66    64   ar
    83   111   109   ar
    84    50    49    1
    85    50    53    1
    86    64    65   ar
    87    69    78   am
    88    69    70    2
    89    57    56    1
    90    55    54    1
    91    55    56    1
    92    54    53    1
    93   154   155    1
    94    78    79    1
    95   155   156    1
    96    96    95    2
    97    81    80    2
    98    95    94    1
    99    79    80    1
   100    79    82    1
   101    83    82    1
   102    80    85   am
   103   156   157    1
   104   157   158    2
   105    88    87    2
   106    82    84    1
   107    11    10    2
   108    48    46   ar
   109    94    93    1
   110    94    97    1
   111    25    23    1
   112    87    93   am
   113    87    86    1
   114    12    13    1
   115    12     9    1
   116    85    86    1
   117    86    89    1
   118   158   160    1
   119   158   159    1
   120    97    98    1
   121    10     9    1
   122    10    14   am
   123   149   148    1
   124    46    45    1
   125    46    47   ar
   126    17    16    2
   127     8     9    1
   128     8     3   am
   129   148   147    1
   130    45    44    1
   131    24    23    1
   132    23    22    1
   133    15    16    1
   134    15    14    1
   135    16    18   am
   136    91    90    1
   137     2     3    1
   138     2     5    1
   139     2     1    1
   140     3     4    2
   141    89    90    1
   142    98    99    1
   143    44    41    1
   144     6     5    1
   145    18    19    1
   146     5     7    1
   147    90    92    1
   148    19    22    1
   149    19    20    1
   150    99   100    1
   151    43    42    2
   152   147   146    1
   153    41    42    1
   154    41    40    1
   155   146   143    1
   156    20    26   am
   157    20    21    2
   158    26    27    1
   159    32    30    1
   160   132   131    1
   161   130   129    2
   162   100   101    1
   163    31    30    1
   164   137   136    2
   165   140   139    2
   166    30    27    1
   167   138   139    1
   168   138   135    1
   169   143   142    1
   170   143   144    1
   171    27    28    1
   172   127   128    1
   173   129   128    1
   174   129   134   am
   175    29    28    2
   176   139   141   am
   177   136   142   am
   178   136   135    1
   179   131   128    1
   180   131   133    1
   181   145   144    2
   182    28    33   am
   183   135   134    1
   184    33    34    1
   185    33    39    1
   186    36    35    2
   187    35    34    1
   188    34    37    1
   189    39    38    1
   190    37    38    1
