@<TRIPOS>MOLECULE
tmp/1y9dB01.pdb
 149 140 0 0 0
SMALL
GASTEIGER

@<TRIPOS>ATOM
      1  N         70.8060   -2.9340    8.5760 N.3   175  LEU175     -0.1245
      2  CA        70.4890   -3.9950    9.5260 C.3   175  LEU175      0.1561
      3  C         71.7320   -4.6680   10.1450 C.2   175  LEU175      0.2260
      4  O         72.8260   -4.6350    9.5650 O.2   175  LEU175     -0.2867
      5  CB        69.5160   -5.0090    8.8800 C.3   175  LEU175      0.0270
      6  CG        68.1680   -4.3860    8.4650 C.3   175  LEU175      0.0019
      7  CD1       67.5960   -4.9860    7.1860 C.3   175  LEU175      0.0001
      8  CD2       67.1690   -4.4480    9.6160 C.3   175  LEU175      0.0001
      9  N         60.3380  -15.7900   -1.5360 N.3   201  GLY201     -0.1210
     10  CA        59.3360  -14.8090   -2.0100 C.3   201  GLY201      0.1956
     11  C         60.0360  -13.4610   -2.2290 C.2   201  GLY201      0.2612
     12  O         61.2740  -13.4160   -2.3430 O.2   201  GLY201     -0.2717
     13  N         59.2730  -12.3630   -2.3160 N.am  202  ILE202     -0.1965
     14  CA        59.8620  -11.0640   -2.7230 C.3   202  ILE202      0.1727
     15  C         60.7290  -10.4680   -1.6480 C.2   202  ILE202      0.2616
     16  O         61.4490   -9.5310   -1.9230 O.2   202  ILE202     -0.2715
     17  CB        58.8280   -9.9580   -3.1870 C.3   202  ILE202      0.0290
     18  CG1       57.5030  -10.1440   -2.5490 C.3   202  ILE202      0.0022
     19  CG2       58.7620   -9.7860   -4.6880 C.3   202  ILE202      0.0023
     20  CD1       57.5560   -9.6980   -1.1670 C.3   202  ILE202      0.0001
     21  N         60.6380  -10.9830   -0.4290 N.am  203  GLY203     -0.1955
     22  CA        61.5770  -10.6490    0.6480 C.3   203  GLY203      0.1869
     23  C         63.0110  -10.9930    0.2550 C.2   203  GLY203      0.2309
     24  O         63.9550  -10.4420    0.8140 O.2   203  GLY203     -0.2863
     25  N         66.4990   -8.7160   -3.0360 N.3   206  LYS206     -0.1245
     26  CA        67.8670   -8.2310   -3.1950 C.3   206  LYS206      0.1561
     27  C         68.8940   -9.3830   -3.2150 C.2   206  LYS206      0.2260
     28  O         70.1060   -9.1290   -3.1290 O.2   206  LYS206     -0.2867
     29  CB        68.2480   -7.2590   -2.0640 C.3   206  LYS206      0.0271
     30  CG        67.5080   -5.9080   -2.0480 C.3   206  LYS206      0.0035
     31  CD        67.2130   -5.3510   -3.4790 C.3   206  LYS206      0.0206
     32  CE        68.4190   -4.5990   -4.1340 C.3   206  LYS206      0.1093
     33  NZ        68.2470   -4.4350   -5.6390 N.3   206  LYS206     -0.1314
     34  N         57.6870  -18.0740   -4.8240 N.3   225  THR225     -0.1218
     35  CA        56.3110  -17.6010   -4.9730 C.3   225  THR225      0.1862
     36  C         56.1520  -16.9840   -6.3710 C.2   225  THR225      0.2287
     37  O         57.1290  -16.6560   -7.0440 O.2   225  THR225     -0.2866
     38  CB        55.9670  -16.5410   -3.9520 C.3   225  THR225      0.1770
     39  OG1       56.8530  -15.4180   -4.1590 O.3   225  THR225     -0.2211
     40  CG2       56.2190  -17.0600   -2.5180 C.3   225  THR225      0.0375
     41  N         54.9240  -13.9040   -7.2550 N.3   227  PRO227     -0.2116
     42  CA        55.5540  -12.5610   -7.3450 C.3   227  PRO227      0.1372
     43  C         57.0970  -12.5750   -7.4140 C.2   227  PRO227      0.2244
     44  O         57.6880  -11.5930   -7.8920 O.2   227  PRO227     -0.2868
     45  CB        55.1190  -11.8750   -6.0500 C.3   227  PRO227      0.0268
     46  CG        53.9090  -12.6790   -5.5140 C.3   227  PRO227      0.0207
     47  CD        54.0340  -14.0320   -6.0780 C.3   227  PRO227      0.0892
     48  N         62.5750  -14.8980    2.8460 N.3   265  GLY265     -0.1210
     49  CA        61.7070  -13.7590    2.5430 C.3   265  GLY265      0.1956
     50  C         60.4010  -14.2840    1.9600 C.2   265  GLY265      0.2612
     51  O         59.9960  -13.8400    0.9130 O.2   265  GLY265     -0.2717
     52  N         59.7700  -15.2390    2.6410 N.am  266  ASN266     -0.1960
     53  CA        58.6380  -16.0020    2.1110 C.3   266  ASN266      0.1819
     54  C         57.5560  -16.2990    3.1790 C.2   266  ASN266      0.2621
     55  O         56.5570  -15.5970    3.2050 O.2   266  ASN266     -0.2715
     56  CB        59.1150  -17.2950    1.4360 C.3   266  ASN266      0.1195
     57  CG        58.0090  -18.0390    0.7330 C.2   266  ASN266      0.2630
     58  OD1       56.8450  -17.6480    0.7820 O.2   266  ASN266     -0.2716
     59  ND2       58.3660  -19.1490    0.0850 N.am  266  ASN266     -0.0877
     60  N         57.7180  -17.2890    4.0620 N.am  267  ASN267     -0.1972
     61  CA        56.5650  -17.6670    4.9750 C.3   267  ASN267      0.1688
     62  C         55.3250  -18.2960    4.2730 C.2   267  ASN267      0.2292
     63  O         54.3580  -17.5890    3.9880 O.2   267  ASN267     -0.2864
     64  CB        56.1270  -16.4650    5.9100 C.3   267  ASN267      0.1181
     65  CG        54.8540  -15.6650    5.4000 C.2   267  ASN267      0.2629
     66  OD1       53.9520  -15.2840    6.1980 O.2   267  ASN267     -0.2716
     67  ND2       54.8110  -15.3970    4.1080 N.am  267  ASN267     -0.0877
     68  N         52.8990  -19.4420    1.4170 N.3   269  PRO269     -0.2116
     69  CA        51.5290  -19.1750    0.9250 C.3   269  PRO269      0.1372
     70  C         50.7800  -20.4760    0.5630 C.2   269  PRO269      0.2244
     71  O         49.7100  -20.7710    1.1200 O.2   269  PRO269     -0.2868
     72  CB        51.7700  -18.3300   -0.3410 C.3   269  PRO269      0.0268
     73  CG        53.1440  -18.7640   -0.8660 C.3   269  PRO269      0.0207
     74  CD        53.9070  -19.3070    0.3340 C.3   269  PRO269      0.0892
     75  N         64.3690  -17.7600    6.9680 N.3   280  ILE280     -0.1231
     76  CA        65.0850  -16.4860    7.1340 C.3   280  ILE280      0.1692
     77  C         64.0230  -15.3630    6.8640 C.2   280  ILE280      0.2592
     78  O         63.4020  -15.3270    5.7730 O.2   280  ILE280     -0.2718
     79  CB        66.2530  -16.3530    6.1090 C.3   280  ILE280      0.0266
     80  CG1       67.3450  -17.4520    6.2840 C.3   280  ILE280      0.0019
     81  CG2       66.9210  -14.9770    6.1810 C.3   280  ILE280      0.0020
     82  CD1       68.1640  -17.6570    5.0040 C.3   280  ILE280      0.0001
     83  N         63.8160  -14.4750    7.8360 N.am  281  ASP281     -0.1960
     84  CA        62.8610  -13.3780    7.6410 C.3   281  ASP281      0.1840
     85  C         63.2550  -12.2350    8.5100 C.2   281  ASP281      0.2622
     86  O         63.7800  -12.4510    9.5990 O.2   281  ASP281     -0.2715
     87  CB        61.4200  -13.7780    8.0120 C.3   281  ASP281      0.1450
     88  CG        60.3730  -12.9820    7.2160 C.2   281  ASP281      0.3671
     89  OD1       60.1330  -11.7930    7.5850 O.co2 281  ASP281     -0.2456
     90  OD2       59.7610  -13.4400    6.2020 O.co2 281  ASP281     -0.2456
     91  N         62.9250  -11.0310    8.0540 N.am  282  ILE282     -0.1963
     92  CA        63.2440   -9.8020    8.7490 C.3   282  ILE282      0.1727
     93  C         62.2040   -9.3870    9.8140 C.2   282  ILE282      0.2616
     94  O         62.4960   -8.5940   10.7170 O.2   282  ILE282     -0.2715
     95  CB        63.5050   -8.7080    7.7060 C.3   282  ILE282      0.0290
     96  CG1       64.6840   -7.8700    8.1410 C.3   282  ILE282      0.0022
     97  CG2       62.2670   -7.9040    7.3010 C.3   282  ILE282      0.0023
     98  CD1       65.8660   -8.1850    7.3320 C.3   282  ILE282      0.0001
     99  N         61.0200   -9.9900    9.7440 N.am  283  ASP283     -0.1971
    100  CA        59.9100   -9.6760   10.6400 C.3   283  ASP283      0.1709
    101  C         59.6790  -10.8510   11.6040 C.2   283  ASP283      0.2293
    102  O         59.2880  -11.9230   11.1600 O.2   283  ASP283     -0.2864
    103  CB        58.6650   -9.4550    9.7810 C.3   283  ASP283      0.1436
    104  CG        57.4050   -9.1240   10.5860 C.2   283  ASP283      0.3671
    105  OD1       57.4010   -9.1080   11.8530 O.co2 283  ASP283     -0.2456
    106  OD2       56.3330   -8.8760    9.9930 O.co2 283  ASP283     -0.2456
    107  N         56.6270  -13.1020   11.5550 N.3   286  LYS286     -0.1245
    108  CA        56.5320  -14.1280   10.5220 C.3   286  LYS286      0.1561
    109  C         57.2340  -15.4600   10.9060 C.2   286  LYS286      0.2260
    110  O         57.0220  -16.4780   10.2880 O.2   286  LYS286     -0.2867
    111  CB        57.0630  -13.6040    9.1770 C.3   286  LYS286      0.0271
    112  CG        56.4720  -12.3060    8.6630 C.3   286  LYS286      0.0035
    113  CD        54.9950  -12.3770    8.3560 C.3   286  LYS286      0.0206
    114  CE        54.5590  -11.2230    7.4280 C.3   286  LYS286      0.1093
    115  NZ        55.2750   -9.9270    7.6930 N.3   286  LYS286     -0.1314
    116  N         66.7930  -12.1810   10.2470 N.3   299  ALA299     -0.1231
    117  CA        67.8010  -11.4110    9.5420 C.3   299  ALA299      0.1694
    118  C         67.3990  -11.1700    8.1210 C.2   299  ALA299      0.2592
    119  O         66.4180  -11.7430    7.6200 O.2   299  ALA299     -0.2718
    120  CB        69.1830  -12.1010    9.5680 C.3   299  ALA299      0.0304
    121  N         68.1860  -10.3010    7.4950 N.am  300  ASP300     -0.1960
    122  CA        68.0600   -9.9630    6.1030 C.3   300  ASP300      0.1840
    123  C         68.4870  -11.1580    5.2250 C.2   300  ASP300      0.2621
    124  O         69.4150  -11.9150    5.5710 O.2   300  ASP300     -0.2715
    125  CB        68.9020   -8.7200    5.8430 C.3   300  ASP300      0.1450
    126  CG        69.0320   -8.4050    4.3850 C.2   300  ASP300      0.3671
    127  OD1       67.9960   -8.1070    3.7150 O.co2 300  ASP300     -0.2456
    128  OD2       70.1360   -8.4420    3.7990 O.co2 300  ASP300     -0.2456
    129  N         67.8110  -11.3000    4.0880 N.am  301  ALA301     -0.1977
    130  CA        67.9110  -12.5070    3.2690 C.3   301  ALA301      0.1597
    131  C         69.3050  -12.5670    2.6460 C.2   301  ALA301      0.2287
    132  O         70.0210  -13.5520    2.8260 O.2   301  ALA301     -0.2864
    133  CB        66.8350  -12.5090    2.2030 C.3   301  ALA301      0.0319
    134  N         48.1650   -9.5400   -6.5370 N.3   392  ASN392     -0.1225
    135  CA        48.5570  -10.8330   -6.0510 C.3   392  ASN392      0.1785
    136  C         47.5770  -11.3490   -5.0090 C.2   392  ASN392      0.2597
    137  O         46.8970  -12.3400   -5.2490 O.2   392  ASN392     -0.2718
    138  CB        49.9910  -10.7500   -5.5220 C.3   392  ASN392      0.1169
    139  CG        51.0190  -10.5460   -6.6680 C.2   392  ASN392      0.2627
    140  OD1       51.2230  -11.4550   -7.5010 O.2   392  ASN392     -0.2716
    141  ND2       51.6430   -9.3640   -6.7360 N.am  392  ASN392     -0.0877
    142  N         47.4500  -10.6840   -3.8680 N.am  393  LEU393     -0.1980
    143  CA        46.6140  -11.2240   -2.7700 C.3   393  LEU393      0.1596
    144  C         45.1360  -10.8930   -2.8340 C.2   393  LEU393      0.2287
    145  O         44.2910  -11.7630   -2.5470 O.2   393  LEU393     -0.2864
    146  CB        47.1790  -10.8300   -1.4230 C.3   393  LEU393      0.0297
    147  CG        47.9310  -11.8600   -0.5510 C.3   393  LEU393      0.0022
    148  CD1       48.6230  -13.0540   -1.2950 C.3   393  LEU393      0.0001
    149  CD2       48.9480  -11.1790    0.3940 C.3   393  LEU393      0.0001
@<TRIPOS>BOND
     1    44    43    2
     2   140   139    2
     3    43    42    1
     4    42    41    1
     5    42    45    1
     6    41    47    1
     7    37    36    2
     8   141   139   am
     9   139   138    1
    10   134   135    1
    11    36    35    1
    12    47    46    1
    13   135   138    1
    14   135   136    1
    15    45    46    1
    16    33    32    1
    17   137   136    2
    18   136   142   am
    19    35    34    1
    20    35    38    1
    21    19    17    1
    22    39    38    1
    23    32    31    1
    24    38    40    1
    25   142   143    1
    26    31    30    1
    27    27    26    1
    28    27    28    2
    29    26    25    1
    30    26    29    1
    31    17    14    1
    32    17    18    1
    33   144   143    1
    34   144   145    2
    35   143   146    1
    36    14    13    1
    37    14    15    1
    38    18    20    1
    39    12    11    2
    40    13    11   am
    41    11    10    1
    42    29    30    1
    43    10     9    1
    44    16    15    2
    45    15    21   am
    46   146   147    1
    47   148   147    1
    48    73    72    1
    49    73    74    1
    50   147   149    1
    51    21    22    1
    52    72    69    1
    53    59    57   am
    54    23    22    1
    55    23    24    2
    56    74    68    1
    57    70    69    1
    58    70    71    2
    59    57    58    2
    60    57    56    1
    61    51    50    2
    62    69    68    1
    63    56    53    1
    64    50    49    1
    65    50    52   am
    66    53    52    1
    67    53    54    1
    68   133   130    1
    69    49    48    1
    70   131   132    2
    71   131   130    1
    72    54    55    2
    73    54    60   am
    74   130   129    1
    75   127   126   ar
    76   128   126   ar
    77    63    62    2
    78    60    61    1
    79   129   123   am
    80    67    65   am
    81    62    61    1
    82   126   125    1
    83    61    64    1
    84    82    80    1
    85   123   124    2
    86   123   122    1
    87    65    64    1
    88    65    66    2
    89    78    77    2
    90   125   122    1
    91   122   121    1
    92    79    81    1
    93    79    80    1
    94    79    76    1
    95    90    88   ar
    96    77    76    1
    97    77    83   am
    98    75    76    1
    99     7     6    1
   100    88    89   ar
   101    88    87    1
   102    97    95    1
   103    98    96    1
   104   114   115    1
   105   114   113    1
   106   121   118   am
   107   119   118    2
   108    84    83    1
   109    84    87    1
   110    84    85    1
   111    95    96    1
   112    95    92    1
   113    91    85   am
   114    91    92    1
   115   118   117    1
   116   113   112    1
   117     6     5    1
   118     6     8    1
   119    85    86    2
   120     1     2    1
   121   112   111    1
   122    92    93    1
   123     5     2    1
   124   111   108    1
   125     2     3    1
   126   117   120    1
   127   117   116    1
   128     4     3    2
   129    99    93   am
   130    99   100    1
   131   103   104    1
   132   103   100    1
   133    93    94    2
   134   106   104   ar
   135   110   109    2
   136   108   109    1
   137   108   107    1
   138   104   105   ar
   139   100   101    1
   140   102   101    2
