@<TRIPOS>MOLECULE
tmp/1y9dA00.pdb
 146 141 0 0 0
SMALL
GASTEIGER

@<TRIPOS>ATOM
      1  N         36.9190    0.2160   27.4120 N.3    84  ASN84      -0.1240
      2  CA        37.8440    1.2540   27.9340 C.3    84  ASN84       0.1653
      3  C         39.2370    0.7010   28.1030 C.2    84  ASN84       0.2266
      4  O         40.2150    1.4180   27.9580 O.2    84  ASN84      -0.2867
      5  CB        37.3090    1.9750   29.1990 C.3    84  ASN84       0.1155
      6  CG        36.2940    3.0470   28.8460 C.2    84  ASN84       0.2627
      7  OD1       35.3790    2.7850   28.0730 O.2    84  ASN84      -0.2716
      8  ND2       36.4900    4.2860   29.3520 N.am   84  ASN84      -0.0877
      9  N         43.5940    8.7290   36.6550 N.3   359  VAL359     -0.1231
     10  CA        43.6500    9.9150   35.8350 C.3   359  VAL359      0.1692
     11  C         42.9440   11.0800   36.5040 C.2   359  VAL359      0.2593
     12  O         41.8280   10.9230   36.9900 O.2   359  VAL359     -0.2718
     13  CB        43.0380    9.6260   34.4470 C.3   359  VAL359      0.0266
     14  CG1       42.7860   10.9320   33.6480 C.3   359  VAL359      0.0020
     15  CG2       43.9110    8.6530   33.6670 C.3   359  VAL359      0.0020
     16  N         43.5620   12.2640   36.4640 N.am  360  GLY360     -0.1942
     17  CA        43.0330   13.4750   37.0870 C.3   360  GLY360      0.2014
     18  C         44.1770   14.2280   37.7660 C.2   360  GLY360      0.2639
     19  O         45.3300   13.9680   37.4490 O.2   360  GLY360     -0.2714
     20  N         43.8570   15.1070   38.7310 N.am  361  ASP361     -0.1957
     21  CA        44.8640   15.9160   39.4620 C.3   361  ASP361      0.1840
     22  C         45.9870   15.0550   39.9280 C.2   361  ASP361      0.2621
     23  O         47.1060   15.5610   40.0890 O.2   361  ASP361     -0.2715
     24  CB        44.3150   16.5590   40.7230 C.3   361  ASP361      0.1450
     25  CG        43.6310   17.8720   40.4720 C.2   361  ASP361      0.3671
     26  OD1       43.6310   18.3640   39.3140 O.co2 361  ASP361     -0.2456
     27  OD2       43.0460   18.4960   41.4030 O.co2 361  ASP361     -0.2456
     28  N         45.7100   13.7740   40.1980 N.am  362  ILE362     -0.1977
     29  CA        46.7480   12.8850   40.7050 C.3   362  ILE362      0.1596
     30  C         47.9440   12.7210   39.7640 C.2   362  ILE362      0.2287
     31  O         49.0420   12.5090   40.2440 O.2   362  ILE362     -0.2864
     32  CB        46.2050   11.4610   41.1680 C.3   362  ILE362      0.0276
     33  CG1       47.3280   10.6260   41.7960 C.3   362  ILE362      0.0022
     34  CG2       45.6430   10.6380   40.0020 C.3   362  ILE362      0.0022
     35  CD1       47.8860   11.2190   43.0990 C.3   362  ILE362      0.0001
     36  N         43.7980    7.9600   28.3360 N.3   385  ALA385     -0.1231
     37  CA        43.5850    8.6320   29.6400 C.3   385  ALA385      0.1694
     38  C         42.2030    8.3260   30.2110 C.2   385  ALA385      0.2593
     39  O         41.4500    9.2240   30.6130 O.2   385  ALA385     -0.2718
     40  CB        43.8560   10.1800   29.5510 C.3   385  ALA385      0.0304
     41  N         41.8950    7.0460   30.2610 N.am  386  THR386     -0.1939
     42  CA        40.6560    6.6060   30.8780 C.3   386  THR386      0.2028
     43  C         40.8080    6.6150   32.4280 C.2   386  THR386      0.2642
     44  O         41.7800    6.1250   32.9740 O.2   386  THR386     -0.2714
     45  CB        40.1690    5.2340   30.3070 C.3   386  THR386      0.1808
     46  OG1       39.0020    4.7910   31.0200 O.3   386  THR386     -0.2208
     47  CG2       41.2050    4.1280   30.4930 C.3   386  THR386      0.0379
     48  N         39.8570    7.2370   33.1190 N.am  387  MET387     -0.1976
     49  CA        39.7740    7.1040   34.5800 C.3   387  MET387      0.1605
     50  C         39.4890    5.6260   34.9080 C.2   387  MET387      0.2287
     51  O         38.9730    4.8750   34.0470 O.2   387  MET387     -0.2864
     52  CB        38.6490    7.9900   35.1030 C.3   387  MET387      0.0413
     53  CG        38.9670    9.4840   35.0120 C.3   387  MET387      0.0598
     54  SD        37.4330   10.4350   35.1590 S.3   387  MET387     -0.1393
     55  CE        37.1550   10.1450   36.9040 C.3   387  MET387      0.0692
     56  N         42.1520    9.4770   42.3710 N.3   411  GLY411     -0.1210
     57  CA        41.1360   10.4160   42.8620 C.3   411  GLY411      0.1956
     58  C         39.8300    9.6920   43.1690 C.2   411  GLY411      0.2612
     59  O         39.6580    8.5320   42.7740 O.2   411  GLY411     -0.2717
     60  N         38.9060   10.3770   43.8500 N.am  412  ASP412     -0.1959
     61  CA        37.6020    9.7940   44.1900 C.3   412  ASP412      0.1840
     62  C         36.7330    9.5150   42.9350 C.2   412  ASP412      0.2623
     63  O         36.0970    8.4510   42.8230 O.2   412  ASP412     -0.2715
     64  CB        36.8500   10.5890   45.3080 C.3   412  ASP412      0.1450
     65  CG        36.8110   12.1310   45.1020 C.2   412  ASP412      0.3671
     66  OD1       37.3850   12.6830   44.1450 O.co2 412  ASP412     -0.2456
     67  OD2       36.1920   12.8930   45.8900 O.co2 412  ASP412     -0.2456
     68  N         36.7690   10.4220   41.9570 N.am  413  GLY413     -0.1940
     69  CA        36.0220   10.2220   40.7120 C.3   413  GLY413      0.2014
     70  C         36.4630    8.9480   40.0290 C.2   413  GLY413      0.2639
     71  O         35.6420    8.1580   39.6540 O.2   413  GLY413     -0.2714
     72  N         37.7630    8.7290   39.9140 N.am  414  GLY414     -0.1954
     73  CA        38.3210    7.5650   39.2390 C.3   414  GLY414      0.1869
     74  C         38.2220    6.2600   40.0110 C.2   414  GLY414      0.2309
     75  O         37.9340    5.2050   39.4360 O.2   414  GLY414     -0.2863
     76  N         34.7250    4.7200   39.7560 N.3   417  MET417     -0.1245
     77  CA        34.3970    4.0500   38.5060 C.3   417  MET417      0.1570
     78  C         34.7250    2.5850   38.5290 C.2   417  MET417      0.2261
     79  O         34.0150    1.7740   37.9250 O.2   417  MET417     -0.2867
     80  CB        35.0530    4.7350   37.2910 C.3   417  MET417      0.0387
     81  CG        34.3460    6.0190   36.9380 C.3   417  MET417      0.0595
     82  SD        35.0690    6.7890   35.4780 S.3   417  MET417     -0.1393
     83  CE        34.0930    8.2720   35.3550 C.3   417  MET417      0.0692
     84  N         42.1960   10.0030   46.9740 N.3   437  PHE437     -0.1241
     85  CA        42.3280   11.4230   47.2770 C.3   437  PHE437      0.1605
     86  C         40.9390   12.0350   47.1390 C.2   437  PHE437      0.2264
     87  O         40.4640   12.2550   46.0230 O.2   437  PHE437     -0.2867
     88  CB        43.2830   12.1070   46.2850 C.3   437  PHE437      0.0534
     89  CG        44.6760   11.6980   46.4460 C.ar  437  PHE437     -0.0203
     90  CD1       45.0660   10.4020   46.1430 C.ar  437  PHE437     -0.0042
     91  CD2       45.6340   12.6200   46.9120 C.ar  437  PHE437     -0.0042
     92  CE1       46.3730   10.0000   46.2850 C.ar  437  PHE437     -0.0003
     93  CE2       46.9340   12.2340   47.0800 C.ar  437  PHE437     -0.0003
     94  CZ        47.3210   10.9100   46.7820 C.ar  437  PHE437     -0.0000
     95  N         38.4470   14.8100   47.2300 N.3   439  ASN439     -0.1240
     96  CA        38.1360   16.2370   47.2770 C.3   439  ASN439      0.1653
     97  C         36.6730   16.4920   47.0060 C.2   439  ASN439      0.2266
     98  O         36.2550   17.6420   46.9660 O.2   439  ASN439     -0.2867
     99  CB        39.0200   17.0650   46.3200 C.3   439  ASN439      0.1155
    100  CG        39.1030   16.4500   44.9240 C.2   439  ASN439      0.2627
    101  OD1       38.2520   15.6110   44.5350 O.2   439  ASN439     -0.2716
    102  ND2       40.1260   16.8510   44.1620 N.am  439  ASN439     -0.0877
    103  N         35.2780   16.2710   44.2830 N.3   441  GLN441     -0.1231
    104  CA        35.2220   16.9720   43.0080 C.3   441  GLN441      0.1698
    105  C         35.7660   16.1250   41.8750 C.2   441  GLN441      0.2592
    106  O         36.5320   15.1740   42.1270 O.2   441  GLN441     -0.2718
    107  CB        36.0890   18.2240   43.0760 C.3   441  GLN441      0.0381
    108  CG        35.5990   19.3210   44.0050 C.3   441  GLN441      0.0905
    109  CD        36.6930   20.3460   44.3220 C.2   441  GLN441      0.2608
    110  OE1       36.4540   21.2830   45.0690 O.2   441  GLN441     -0.2717
    111  NE2       37.8770   20.1710   43.7520 N.am  441  GLN441     -0.0878
    112  N         35.3790   16.4790   40.6400 N.am  442  TYR442     -0.1962
    113  CA        36.2260   16.2090   39.4810 C.3   442  TYR442      0.1771
    114  C         37.2020   17.4130   39.4110 C.2   442  TYR442      0.2620
    115  O         37.0010   18.3670   38.6570 O.2   442  TYR442     -0.2715
    116  CB        35.4040   16.0390   38.1870 C.3   442  TYR442      0.0574
    117  CG        34.5040   14.8180   38.2120 C.ar  442  TYR442     -0.0198
    118  CD1       35.0070   13.5320   38.4990 C.ar  442  TYR442     -0.0009
    119  CD2       33.1460   14.9480   37.9480 C.ar  442  TYR442     -0.0009
    120  CE1       34.1680   12.4290   38.5240 C.ar  442  TYR442      0.0417
    121  CE2       32.2990   13.8610   37.9840 C.ar  442  TYR442      0.0417
    122  CZ        32.8030   12.6180   38.2720 C.ar  442  TYR442      0.1957
    123  OH        31.9090   11.5870   38.2840 O.3   442  TYR442     -0.2866
    124  N         38.2130   17.3730   40.2770 N.am  443  GLY443     -0.1940
    125  CA        39.1180   18.5250   40.5180 C.3   443  GLY443      0.2014
    126  C         39.7380   19.0630   39.2520 C.2   443  GLY443      0.2639
    127  O         39.6170   20.2620   38.9530 O.2   443  GLY443     -0.2714
    128  N         40.3970   18.1920   38.4980 N.am  444  PHE444     -0.1959
    129  CA        40.9490   18.5710   37.1940 C.3   444  PHE444      0.1771
    130  C         39.9480   19.2750   36.2660 C.2   444  PHE444      0.2619
    131  O         40.3130   20.2830   35.6480 O.2   444  PHE444     -0.2715
    132  CB        41.5570   17.3510   36.5190 C.3   444  PHE444      0.0574
    133  CG        42.6470   17.6790   35.5310 C.ar  444  PHE444     -0.0200
    134  CD1       43.9650   17.6520   35.9130 C.ar  444  PHE444     -0.0042
    135  CD2       42.3360   17.9980   34.2030 C.ar  444  PHE444     -0.0042
    136  CE1       44.9810   17.9320   34.9970 C.ar  444  PHE444     -0.0003
    137  CE2       43.3380   18.3020   33.2920 C.ar  444  PHE444     -0.0003
    138  CZ        44.6600   18.2550   33.6830 C.ar  444  PHE444     -0.0000
    139  N         38.6800   18.8060   36.2090 N.am  445  ILE445     -0.1977
    140  CA        37.6730   19.4210   35.3190 C.3   445  ILE445      0.1596
    141  C         37.1120   20.7330   35.8520 C.2   445  ILE445      0.2287
    142  O         36.8300   21.6630   35.0810 O.2   445  ILE445     -0.2864
    143  CB        36.4770   18.4490   34.9340 C.3   445  ILE445      0.0276
    144  CG1       36.9810   17.0920   34.4340 C.3   445  ILE445      0.0022
    145  CG2       35.6010   19.1090   33.8740 C.3   445  ILE445      0.0022
    146  CD1       38.0530   17.2050   33.3290 C.3   445  ILE445      0.0001
@<TRIPOS>BOND
     1     1     2    1
     2     2     3    1
     3     2     5    1
     4     4     3    2
     5     7     6    2
     6    36    37    1
     7     6     5    1
     8     6     8   am
     9    40    37    1
    10    37    38    1
    11    38    41   am
    12    38    39    2
    13    41    42    1
    14    45    47    1
    15    45    42    1
    16    45    46    1
    17    42    43    1
    18    43    44    2
    19    43    48   am
    20    48    49    1
    21   137   138   ar
    22   137   135   ar
    23   146   144    1
    24    14    13    1
    25    15    13    1
    26   138   136   ar
    27   145   143    1
    28    51    50    2
    29   135   133   ar
    30   144   143    1
    31    13    10    1
    32    49    50    1
    33    49    52    1
    34   143   140    1
    35   136   134   ar
    36    53    52    1
    37    53    54    1
    38   142   141    2
    39    54    55    1
    40   140   141    1
    41   140   139    1
    42    83    82    1
    43    82    81    1
    44   133   134   ar
    45   133   132    1
    46   131   130    2
    47    10    11    1
    48    10     9    1
    49   139   130   am
    50   130   129    1
    51    16    11   am
    52    16    17    1
    53    11    12    2
    54   132   129    1
    55    81    80    1
    56    17    18    1
    57   129   128    1
    58    80    77    1
    59    19    18    2
    60    18    20   am
    61    79    78    2
    62   119   121   ar
    63   119   117   ar
    64   121   122   ar
    65   116   117    1
    66   116   113    1
    67   117   118   ar
    68   122   123    1
    69   122   120   ar
    70   128   126   am
    71   118   120   ar
    72    77    78    1
    73    77    76    1
    74   115   114    2
    75    20    21    1
    76   127   126    2
    77    73    72    1
    78    73    74    1
    79   126   125    1
    80    26    25   ar
    81   114   113    1
    82   114   124   am
    83    75    74    2
    84    21    22    1
    85    21    24    1
    86   113   112    1
    87    71    70    2
    88    30    31    2
    89    30    29    1
    90    72    70   am
    91    22    23    2
    92    22    28   am
    93    34    32    1
    94    70    69    1
    95    28    29    1
    96   124   125    1
    97    25    24    1
    98    25    27   ar
    99   112   105   am
   100    29    32    1
   101    69    68    1
   102    32    33    1
   103    33    35    1
   104   105   106    2
   105   105   104    1
   106    68    62   am
   107    56    57    1
   108    59    58    2
   109    63    62    2
   110    57    58    1
   111    62    61    1
   112   104   107    1
   113   104   103    1
   114   107   108    1
   115    58    60   am
   116   111   109   am
   117    60    61    1
   118   108   109    1
   119    66    65   ar
   120   102   100   am
   121    61    64    1
   122   109   110    2
   123   101   100    2
   124   100    99    1
   125    65    64    1
   126    65    67   ar
   127    87    86    2
   128    90    92   ar
   129    90    89   ar
   130    88    89    1
   131    88    85    1
   132    92    94   ar
   133    99    96    1
   134    89    91   ar
   135    94    93   ar
   136    91    93   ar
   137    98    97    2
   138    84    85    1
   139    97    96    1
   140    86    85    1
   141    95    96    1
