@<TRIPOS>MOLECULE
tmp/1y9dA01.pdb
 134 125 0 0 0
SMALL
GASTEIGER

@<TRIPOS>ATOM
      1  N         66.8570   -4.0310   15.8490 N.3   170  LEU170     -0.1245
      2  CA        67.1360   -2.6010   15.9480 C.3   170  LEU170      0.1561
      3  C         68.2890   -2.1970   15.0160 C.2   170  LEU170      0.2260
      4  O         69.3110   -2.9080   14.9480 O.2   170  LEU170     -0.2867
      5  CB        67.3640   -2.1370   17.3970 C.3   170  LEU170      0.0270
      6  CG        67.7580   -3.0640   18.5480 C.3   170  LEU170      0.0019
      7  CD1       69.2540   -3.0480   18.8310 C.3   170  LEU170      0.0001
      8  CD2       66.9900   -2.6320   19.7860 C.3   170  LEU170      0.0001
      9  N         61.6080   10.2180   26.0050 N.3   196  GLY196     -0.1210
     10  CA        60.4000    9.4780   26.4180 C.3   196  GLY196      0.1956
     11  C         60.7800    8.0370   26.6800 C.2   196  GLY196      0.2612
     12  O         61.9750    7.7560   26.7830 O.2   196  GLY196     -0.2717
     13  N         59.7930    7.1190   26.7640 N.am  197  ILE197     -0.1965
     14  CA        60.0160    5.7170   27.2060 C.3   197  ILE197      0.1727
     15  C         60.8240    4.9460   26.2080 C.2   197  ILE197      0.2616
     16  O         61.2610    3.8370   26.5200 O.2   197  ILE197     -0.2715
     17  CB        58.6780    4.8080   27.4200 C.3   197  ILE197      0.0290
     18  CG1       57.6060    5.1620   26.4320 C.3   197  ILE197      0.0022
     19  CG2       58.1910    4.6680   28.8450 C.3   197  ILE197      0.0023
     20  CD1       57.7450    4.3630   25.2330 C.3   197  ILE197      0.0001
     21  N         60.9720    5.4600   24.9910 N.am  198  GLY198     -0.1955
     22  CA        61.9020    4.8160   24.0600 C.3   198  GLY198      0.1869
     23  C         63.3320    4.7930   24.6100 C.2   198  GLY198      0.2309
     24  O         64.1710    4.0350   24.1470 O.2   198  GLY198     -0.2863
     25  N         65.9330    1.9040   28.3170 N.3   201  LYS201     -0.1245
     26  CA        67.1690    1.1880   28.6070 C.3   201  LYS201      0.1561
     27  C         68.4320    2.0720   28.6730 C.2   201  LYS201      0.2260
     28  O         69.5500    1.5490   28.7900 O.2   201  LYS201     -0.2867
     29  CB        67.3480    0.0360   27.6100 C.3   201  LYS201      0.0271
     30  CG        66.3530   -1.1340   27.8030 C.3   201  LYS201      0.0035
     31  CD        66.0950   -1.9220   26.4910 C.3   201  LYS201      0.0206
     32  CE        67.3720   -2.5830   25.8870 C.3   201  LYS201      0.1093
     33  NZ        67.7470   -3.9180   26.4840 N.3   201  LYS201     -0.1314
     34  N         59.1390   13.0450   29.0350 N.3   220  THR220     -0.1218
     35  CA        57.6850   12.8620   28.9800 C.3   220  THR220      0.1862
     36  C         57.2400   12.3350   30.3540 C.2   220  THR220      0.2287
     37  O         58.0110   11.7010   31.0820 O.2   220  THR220     -0.2866
     38  CB        57.2810   11.8300   27.8990 C.3   220  THR220      0.1770
     39  OG1       57.9330   10.5790   28.1610 O.3   220  THR220     -0.2211
     40  CG2       57.7910   12.2300   26.4960 C.3   220  THR220      0.0375
     41  N         55.4340    9.6320   31.1480 N.3   222  PRO222     -0.2116
     42  CA        55.7550    8.2090   31.3280 C.3   222  PRO222      0.1372
     43  C         57.2640    7.8980   31.4470 C.2   222  PRO222      0.2244
     44  O         57.6360    6.7620   31.7730 O.2   222  PRO222     -0.2868
     45  CB        55.2130    7.5400   30.0440 C.3   222  PRO222      0.0268
     46  CG        54.5060    8.5620   29.2740 C.3   222  PRO222      0.0207
     47  CD        54.8200    9.8970   29.8240 C.3   222  PRO222      0.0892
     48  N         64.1410    8.6590   22.0040 N.3   260  GLY260     -0.1210
     49  CA        62.9690    7.7620   22.1120 C.3   260  GLY260      0.1956
     50  C         61.7190    8.5290   22.5420 C.2   260  GLY260      0.2612
     51  O         61.0610    8.1560   23.5290 O.2   260  GLY260     -0.2717
     52  N         61.3830    9.5850   21.8020 N.am  261  ASN261     -0.1960
     53  CA        60.3590   10.5340   22.2120 C.3   261  ASN261      0.1819
     54  C         59.1910   10.6610   21.1860 C.2   261  ASN261      0.2621
     55  O         58.5170    9.6640   20.8850 O.2   261  ASN261     -0.2715
     56  CB        61.0240   11.8680   22.5330 C.3   261  ASN261      0.1195
     57  CG        60.1170   12.8260   23.2600 C.2   261  ASN261      0.2630
     58  OD1       58.8890   12.7290   23.1850 O.2   261  ASN261     -0.2716
     59  ND2       60.7160   13.8010   23.9380 N.am  261  ASN261     -0.0877
     60  N         58.9690   11.8580   20.6340 N.am  262  ASN262     -0.1972
     61  CA        57.7380   12.1900   19.8950 C.3   262  ASN262      0.1688
     62  C         56.5320   12.1260   20.7950 C.2   262  ASN262      0.2292
     63  O         55.5340   12.7990   20.5550 O.2   262  ASN262     -0.2864
     64  CB        57.5420   11.3170   18.6560 C.3   262  ASN262      0.1181
     65  CG        56.3190   10.4200   18.7410 C.2   262  ASN262      0.2629
     66  OD1       55.4220   10.4740   17.8610 O.2   262  ASN262     -0.2716
     67  ND2       56.2650    9.5750   19.7920 N.am  262  ASN262     -0.0877
     68  N         65.6130    7.8740   17.2370 N.3   271  ASP271     -0.1225
     69  CA        64.3830    7.0760   17.2340 C.3   271  ASP271      0.1805
     70  C         64.5910    5.8180   16.4150 C.2   271  ASP271      0.2598
     71  O         65.4110    5.7980   15.4840 O.2   271  ASP271     -0.2718
     72  CB        63.1910    7.8850   16.6950 C.3   271  ASP271      0.1424
     73  CG        61.8570    7.4660   17.3290 C.2   271  ASP271      0.3668
     74  OD1       61.3460    6.3770   16.9640 O.co2 271  ASP271     -0.2456
     75  OD2       61.2580    8.1600   18.1890 O.co2 271  ASP271     -0.2456
     76  N         63.8570    4.7630   16.7550 N.am  272  ILE272     -0.1966
     77  CA        64.0820    3.4590   16.1270 C.3   272  ILE272      0.1727
     78  C         63.1970    3.2660   14.8920 C.2   272  ILE272      0.2616
     79  O         63.4550    2.3940   14.0600 O.2   272  ILE272     -0.2715
     80  CB        63.9430    2.3130   17.1940 C.3   272  ILE272      0.0290
     81  CG1       64.9200    1.2030   16.9010 C.3   272  ILE272      0.0022
     82  CG2       62.4920    1.8270   17.4210 C.3   272  ILE272      0.0023
     83  CD1       66.0990    1.2800   17.7890 C.3   272  ILE272      0.0001
     84  N         62.1820    4.1200   14.7640 N.am  273  ASP273     -0.1971
     85  CA        61.1480    3.9780   13.7420 C.3   273  ASP273      0.1709
     86  C         61.1360    5.1650   12.7580 C.2   273  ASP273      0.2293
     87  O         60.8060    6.3010   13.1420 O.2   273  ASP273     -0.2864
     88  CB        59.8000    3.7840   14.4510 C.3   273  ASP273      0.1436
     89  CG        58.5880    3.9970   13.5470 C.2   273  ASP273      0.3671
     90  OD1       58.7130    4.0340   12.2910 O.co2 273  ASP273     -0.2456
     91  OD2       57.4350    4.1220   14.0300 O.co2 273  ASP273     -0.2456
     92  N         58.6920    8.1070   12.5910 N.3   276  LYS276     -0.1245
     93  CA        58.7980    9.0720   13.6750 C.3   276  LYS276      0.1561
     94  C         59.7600   10.2120   13.3490 C.2   276  LYS276      0.2260
     95  O         59.6580   11.2860   13.9460 O.2   276  LYS276     -0.2867
     96  CB        59.2150    8.3760   14.9810 C.3   276  LYS276      0.0271
     97  CG        58.3230    7.2080   15.4090 C.3   276  LYS276      0.0035
     98  CD        56.9330    7.6640   15.8720 C.3   276  LYS276      0.0206
     99  CE        56.0090    6.4500   16.1490 C.3   276  LYS276      0.1093
    100  NZ        56.6190    5.3870   17.0630 N.3   276  LYS276     -0.1314
    101  N         68.3630    5.0080   14.8730 N.3   289  ALA289     -0.1231
    102  CA        69.0530    3.9610   15.6210 C.3   289  ALA289      0.1694
    103  C         68.5110    3.8530   17.0480 C.2   289  ALA289      0.2592
    104  O         67.6660    4.6760   17.4770 O.2   289  ALA289     -0.2718
    105  CB        70.5590    4.2100   15.6450 C.3   289  ALA289      0.0304
    106  N         69.0150    2.8440   17.7590 N.am  290  ASP290     -0.1960
    107  CA        68.6960    2.5570   19.1690 C.3   290  ASP290      0.1840
    108  C         69.1460    3.6650   20.1370 C.2   290  ASP290      0.2621
    109  O         70.3060    4.0900   20.0910 O.2   290  ASP290     -0.2715
    110  CB        69.3660    1.2370   19.5710 C.3   290  ASP290      0.1450
    111  CG        69.1620    0.8980   21.0380 C.2   290  ASP290      0.3671
    112  OD1       68.0090    0.5870   21.4130 O.co2 290  ASP290     -0.2456
    113  OD2       70.0790    0.8950   21.8910 O.co2 290  ASP290     -0.2456
    114  N         68.2510    4.0840   21.0370 N.am  291  ALA291     -0.1977
    115  CA        68.5260    5.1840   21.9820 C.3   291  ALA291      0.1597
    116  C         69.8140    5.0110   22.7970 C.2   291  ALA291      0.2287
    117  O         70.5690    5.9580   22.9940 O.2   291  ALA291     -0.2864
    118  CB        67.3540    5.4060   22.9100 C.3   291  ALA291      0.0319
    119  N         47.9120    6.7070   29.5640 N.3   382  ASN382     -0.1225
    120  CA        48.6420    7.8790   29.1090 C.3   382  ASN382      0.1785
    121  C         47.8930    8.6000   28.0100 C.2   382  ASN382      0.2597
    122  O         47.4930    9.7310   28.2030 O.2   382  ASN382     -0.2718
    123  CB        50.0370    7.4830   28.6540 C.3   382  ASN382      0.1169
    124  CG        50.9120    7.0550   29.8230 C.2   382  ASN382      0.2627
    125  OD1       51.1660    7.8510   30.7440 O.2   382  ASN382     -0.2716
    126  ND2       51.3530    5.7810   29.8190 N.am  382  ASN382     -0.0877
    127  N         47.6540    7.9250   26.8920 N.am  383  LEU383     -0.1980
    128  CA        47.1180    8.5780   25.7120 C.3   383  LEU383      0.1596
    129  C         45.6060    8.5440   25.6850 C.2   383  LEU383      0.2287
    130  O         45.0230    9.5940   25.5640 O.2   383  LEU383     -0.2864
    131  CB        47.7240    7.9830   24.4300 C.3   383  LEU383      0.0297
    132  CG        49.0010    8.5880   23.7860 C.3   383  LEU383      0.0022
    133  CD1       49.6910    9.7030   24.6320 C.3   383  LEU383      0.0001
    134  CD2       50.0410    7.5020   23.3650 C.3   383  LEU383      0.0001
@<TRIPOS>BOND
     1    90    89   ar
     2    92    93    1
     3    86    87    2
     4    86    85    1
     5    94    93    1
     6    94    95    2
     7    89    91   ar
     8    89    88    1
     9    93    96    1
    10    85    88    1
    11    85    84    1
    12    79    78    2
    13    84    78   am
    14   101   102    1
    15    78    77    1
    16     4     3    2
    17    96    97    1
    18     3     2    1
    19    97    98    1
    20    71    70    2
    21   102   105    1
    22   102   103    1
    23     1     2    1
    24    98    99    1
    25     2     5    1
    26    77    76    1
    27    77    80    1
    28    99   100    1
    29    70    76   am
    30    70    69    1
    31    72    69    1
    32    72    73    1
    33    81    80    1
    34    81    83    1
    35    74    73   ar
    36   103   104    2
    37   103   106   am
    38    80    82    1
    39    69    68    1
    40    73    75   ar
    41     5     6    1
    42   106   107    1
    43    66    65    2
    44     6     7    1
    45     6     8    1
    46    64    65    1
    47    64    61    1
    48    65    67   am
    49   107   110    1
    50   107   108    1
    51   110   111    1
    52    61    60    1
    53    61    62    1
    54   109   108    2
    55   108   114   am
    56    63    62    2
    57    60    54   am
    58    55    54    2
    59   114   115    1
    60   111   112   ar
    61   111   113   ar
    62    54    53    1
    63    52    53    1
    64    52    50   am
    65   115   116    1
    66   115   118    1
    67    48    49    1
    68    49    50    1
    69    53    56    1
    70    56    57    1
    71    50    51    2
    72   116   117    2
    73    58    57    2
    74    57    59   am
    75   134   132    1
    76   132   131    1
    77   132   133    1
    78    22    23    1
    79    22    21    1
    80    24    23    2
    81   131   128    1
    82    21    15   am
    83    20    18    1
    84   130   129    2
    85   129   128    1
    86   128   127    1
    87    32    33    1
    88    32    31    1
    89     9    10    1
    90    15    16    2
    91    15    14    1
    92    10    11    1
    93    18    17    1
    94    31    30    1
    95    40    38    1
    96    11    13   am
    97    11    12    2
    98    13    14    1
    99   127   121   am
   100    14    17    1
   101    17    19    1
   102    29    30    1
   103    29    26    1
   104    38    39    1
   105    38    35    1
   106   121   122    2
   107   121   120    1
   108    25    26    1
   109    26    27    1
   110   123   120    1
   111   123   124    1
   112    27    28    2
   113    35    34    1
   114    35    36    1
   115   120   119    1
   116    46    47    1
   117    46    45    1
   118   126   124   am
   119   124   125    2
   120    47    41    1
   121    45    42    1
   122    36    37    2
   123    41    42    1
   124    42    43    1
   125    43    44    2
