@<TRIPOS>MOLECULE
tmp/1y9gA03.pdb
 116 114 0 0 0
SMALL
GASTEIGER

@<TRIPOS>ATOM
      1  N          8.3170    6.6950   28.4480 N.3    21  ASN21      -0.1225
      2  CA         6.8560    6.5910   28.3340 C.3    21  ASN21       0.1785
      3  C          6.3920    5.4290   27.4020 C.2    21  ASN21       0.2597
      4  O          6.8320    4.2830   27.5980 O.2    21  ASN21      -0.2718
      5  CB         6.1190    8.0000   28.1830 C.3    21  ASN21       0.1169
      6  CG         6.6270    8.8680   26.9970 C.2    21  ASN21       0.2627
      7  OD1        7.7810    9.3250   26.9870 O.2    21  ASN21      -0.2716
      8  ND2        5.7380    9.1160   26.0010 N.am   21  ASN21      -0.0877
      9  N          5.6810    5.7570   26.3310 N.am   22  ASP22      -0.1974
     10  CA         4.8080    4.8010   25.6530 C.3    22  ASP22       0.1709
     11  C          5.5800    3.6320   25.0980 C.2    22  ASP22       0.2293
     12  O          6.6980    3.7810   24.5370 O.2    22  ASP22      -0.2864
     13  CB         4.1290    5.3470   24.4360 C.3    22  ASP22       0.1436
     14  CG         3.4760    6.6920   24.6110 C.2    22  ASP22       0.3671
     15  OD1        3.3670    7.2990   25.7320 O.co2  22  ASP22      -0.2456
     16  OD2        2.9770    7.1840   23.5810 O.co2  22  ASP22      -0.2456
     17  N          9.3210    5.0300   24.1280 N.3    38  GLN38      -0.1245
     18  CA         9.6200    6.4380   24.2270 C.3    38  GLN38       0.1566
     19  C         10.6120    6.5800   25.3540 C.2    38  GLN38       0.2260
     20  O         10.4030    6.1200   26.4660 O.2    38  GLN38      -0.2867
     21  CB         8.3490    7.2510   24.4760 C.3    38  GLN38       0.0367
     22  CG         7.3400    7.1960   23.3790 C.3    38  GLN38       0.0905
     23  CD         7.8240    8.0090   22.1630 C.2    38  GLN38       0.2608
     24  OE1        8.4940    7.4460   21.2800 O.2    38  GLN38      -0.2717
     25  NE2        7.5350    9.2830   22.1380 N.am   38  GLN38      -0.0878
     26  N         10.6460   13.6340   30.6240 N.3    46  TRP46      -0.1241
     27  CA        10.3820   13.5900   29.1900 C.3    46  TRP46       0.1605
     28  C         11.2980   14.6090   28.4660 C.2    46  TRP46       0.2264
     29  O         11.4180   15.7650   28.9000 O.2    46  TRP46      -0.2867
     30  CB         8.9310   13.9140   28.9370 C.3    46  TRP46       0.0550
     31  CG         8.4820   13.7210   27.4810 C.ar   46  TRP46       0.0003
     32  CD1        7.8120   12.6490   26.9580 C.ar   46  TRP46       0.0946
     33  CD2        8.6410   14.6450   26.4120 C.ar   46  TRP46       0.0152
     34  NE1        7.5470   12.8600   25.6240 N.ar   46  TRP46      -0.2442
     35  CE2        8.0650   14.0660   25.2600 C.ar   46  TRP46       0.0810
     36  CE3        9.2260   15.9400   26.3020 C.ar   46  TRP46       0.0012
     37  CZ2        8.0460   14.7280   23.9940 C.ar   46  TRP46       0.0191
     38  CZ3        9.2010   16.5980   25.0540 C.ar   46  TRP46       0.0001
     39  CH2        8.6210   15.9620   23.9130 C.ar   46  TRP46       0.0015
     40  N          8.7030   10.2940   18.0720 N.3    83  PHE83      -0.1227
     41  CA         7.4980   10.0000   18.8360 C.3    83  PHE83       0.1736
     42  C          7.0180    8.5510   18.5870 C.2    83  PHE83       0.2596
     43  O          7.6270    7.8090   17.8120 O.2    83  PHE83      -0.2718
     44  CB         6.4350   11.0790   18.5560 C.3    83  PHE83       0.0547
     45  CG         6.6730   12.3960   19.3380 C.ar   83  PHE83      -0.0202
     46  CD1        7.9210   12.7260   19.8160 C.ar   83  PHE83      -0.0042
     47  CD2        5.6070   13.3070   19.5530 C.ar   83  PHE83      -0.0042
     48  CE1        8.1320   13.9270   20.5410 C.ar   83  PHE83      -0.0003
     49  CE2        5.8340   14.4890   20.2160 C.ar   83  PHE83      -0.0003
     50  CZ         7.0840   14.7940   20.7170 C.ar   83  PHE83      -0.0000
     51  N          5.8300    8.2400   19.1270 N.am   84  SER84      -0.1952
     52  CA         5.3490    6.8680   19.1750 C.3    84  SER84       0.1924
     53  C          4.9730    6.2420   17.8190 C.2    84  SER84       0.2314
     54  O          4.7010    6.9030   16.8360 O.2    84  SER84      -0.2863
     55  CB         4.2130    6.7120   20.2170 C.3    84  SER84       0.2116
     56  OG         4.7290    6.8290   21.5750 O.3    84  SER84      -0.2180
     57  N         -0.4740   11.9040   15.0800 N.3   169  ARG169     -0.1231
     58  CA         0.5450   11.0640   15.6570 C.3   169  ARG169      0.1694
     59  C          0.1030    9.6270   15.9230 C.2   169  ARG169      0.2592
     60  O         -1.0720    9.3050   15.8620 O.2   169  ARG169     -0.2718
     61  CB         1.1870   11.7480   16.8920 C.3   169  ARG169      0.0321
     62  CG         0.2700   12.0330   18.0820 C.3   169  ARG169      0.0489
     63  CD         1.0250   12.5690   19.2870 C.3   169  ARG169      0.2205
     64  NE         0.1350   13.0180   20.3800 N.pl3 169  ARG169     -0.0865
     65  CZ        -0.4540   14.2000   20.4170 C.cat 169  ARG169      0.5346
     66  NH1       -0.3010   15.0470   19.3920 N.pl3 169  ARG169      0.1354
     67  NH2       -1.2160   14.5280   21.4430 N.pl3 169  ARG169      0.1354
     68  N          1.1230    8.7900   16.1800 N.am  170  ASP170     -0.1974
     69  CA         1.0150    7.4700   16.8660 C.3   170  ASP170      0.1709
     70  C          0.4990    6.4420   15.8870 C.2   170  ASP170      0.2293
     71  O         -0.5390    5.8120   16.1320 O.2   170  ASP170     -0.2864
     72  CB         0.0940    7.5240   18.1110 C.3   170  ASP170      0.1436
     73  CG         0.6130    8.4230   19.2270 C.2   170  ASP170      0.3671
     74  OD1        1.7310    8.9880   19.1750 O.co2 170  ASP170     -0.2456
     75  OD2       -0.0860    8.6840   20.2080 O.co2 170  ASP170     -0.2456
     76  N         -4.8780    9.4900   21.7750 N.3   222  GLU222     -0.1231
     77  CA        -3.5180    9.0390   21.5040 C.3   222  GLU222      0.1699
     78  C         -3.4370    7.5000   21.3900 C.2   222  GLU222      0.2592
     79  O         -4.4190    6.7560   21.6990 O.2   222  GLU222     -0.2718
     80  CB        -2.5460    9.5920   22.5420 C.3   222  GLU222      0.0402
     81  CG        -2.5770   11.0900   22.7540 C.3   222  GLU222      0.1161
     82  CD        -1.6000   11.5590   23.7810 C.2   222  GLU222      0.3649
     83  OE1       -1.6010   11.0730   24.9510 O.co2 222  GLU222     -0.2457
     84  OE2       -0.8080   12.4150   23.3830 O.co2 222  GLU222     -0.2457
     85  N         -2.3470    7.0310   20.7910 N.am  223  CYS223     -0.1970
     86  CA        -2.0110    5.5940   20.8540 C.3   223  CYS223      0.1712
     87  C         -3.1260    4.6640   20.3700 C.2   223  CYS223      0.2296
     88  O         -3.5000    3.7340   21.0690 O.2   223  CYS223     -0.2864
     89  CB        -1.5570    5.2620   22.2600 C.3   223  CYS223      0.0983
     90  SG         0.0110    6.1970   22.6550 S.3   223  CYS223     -0.0798
     91  N         -1.7140    3.3750   30.4490 N.3   294  TYR294     -0.1241
     92  CA        -1.7960    4.2900   29.3330 C.3   294  TYR294      0.1605
     93  C         -0.9330    3.9100   28.1410 C.2   294  TYR294      0.2264
     94  O         -0.0290    3.1300   28.2690 O.2   294  TYR294     -0.2867
     95  CB        -1.4480    5.6880   29.8050 C.3   294  TYR294      0.0534
     96  CG        -1.8480    6.7650   28.8080 C.ar  294  TYR294     -0.0201
     97  CD1       -3.1620    6.8760   28.4410 C.ar  294  TYR294     -0.0009
     98  CD2       -0.9230    7.6160   28.1930 C.ar  294  TYR294     -0.0009
     99  CE1       -3.5940    7.7800   27.5490 C.ar  294  TYR294      0.0417
    100  CE2       -1.3780    8.5850   27.2370 C.ar  294  TYR294      0.0417
    101  CZ        -2.7330    8.6540   26.9370 C.ar  294  TYR294      0.1957
    102  OH        -3.3110    9.5130   26.0080 O.3   294  TYR294     -0.2866
    103  N          0.0230   10.7700   33.0940 N.3   316  TRP316     -0.1241
    104  CA         0.6260   12.0960   32.7870 C.3   316  TRP316      0.1605
    105  C          0.3520   13.1670   33.8210 C.2   316  TRP316      0.2264
    106  O          1.1060   14.1250   33.8640 O.2   316  TRP316     -0.2867
    107  CB         0.2060   12.6020   31.4280 C.3   316  TRP316      0.0550
    108  CG         0.8960   11.9200   30.2770 C.ar  316  TRP316      0.0003
    109  CD1        0.3390   11.1170   29.3440 C.ar  316  TRP316      0.0946
    110  CD2        2.2740   12.0320   29.9470 C.ar  316  TRP316      0.0152
    111  NE1        1.3010   10.7010   28.4580 N.ar  316  TRP316     -0.2442
    112  CE2        2.4940   11.2760   28.8010 C.ar  316  TRP316      0.0810
    113  CE3        3.3440   12.7130   30.5170 C.ar  316  TRP316      0.0012
    114  CZ2        3.7270   11.1640   28.2160 C.ar  316  TRP316      0.0191
    115  CZ3        4.5810   12.6140   29.9200 C.ar  316  TRP316      0.0001
    116  CH2        4.7530   11.8560   28.7760 C.ar  316  TRP316      0.0015
@<TRIPOS>BOND
     1    57    58    1
     2    58    59    1
     3    58    61    1
     4    60    59    2
     5    70    71    2
     6    70    69    1
     7    59    68   am
     8    68    69    1
     9    54    53    2
    10    69    72    1
    11    61    62    1
    12    43    42    2
    13    53    52    1
    14    40    41    1
    15    62    63    1
    16    72    73    1
    17    44    41    1
    18    44    45    1
    19    42    41    1
    20    42    51   am
    21    51    52    1
    22    74    73   ar
    23    52    55    1
    24    73    75   ar
    25    63    64    1
    26    45    47   ar
    27    45    46   ar
    28    66    65    1
    29    47    49   ar
    30    46    48   ar
    31    49    50   ar
    32    55    56    1
    33    87    86    1
    34    87    88    2
    35    64    65    2
    36    65    67    1
    37    48    50   ar
    38    85    86    1
    39    85    78   am
    40    86    89    1
    41    24    23    2
    42    78    77    1
    43    78    79    2
    44    77    76    1
    45    77    80    1
    46    25    23   am
    47    23    22    1
    48    89    90    1
    49    80    81    1
    50    81    82    1
    51    22    21    1
    52    84    82   ar
    53    16    14   ar
    54    82    83   ar
    55    39    37   ar
    56    39    38   ar
    57    37    35   ar
    58    17    18    1
    59    18    21    1
    60    18    19    1
    61    13    14    1
    62    13    10    1
    63    12    11    2
    64    14    15   ar
    65    38    36   ar
    66    11    10    1
    67    35    34   ar
    68    35    33   ar
    69    19    20    2
    70    34    32   ar
    71    10     9    1
    72     8     6   am
    73   102   101    1
    74    36    33   ar
    75     9     3   am
    76    33    31   ar
    77   101   100   ar
    78   101    99   ar
    79    32    31   ar
    80     7     6    2
    81     6     5    1
    82   100    98   ar
    83     3     4    2
    84     3     2    1
    85    31    30    1
    86    99    97   ar
    87    93    94    2
    88    93    92    1
    89     5     2    1
    90    98    96   ar
    91   114   116   ar
    92   114   112   ar
    93     2     1    1
    94    97    96   ar
    95   111   112   ar
    96   111   109   ar
    97    28    29    2
    98    28    27    1
    99   116   115   ar
   100   112   110   ar
   101    96    95    1
   102    30    27    1
   103    27    26    1
   104    92    95    1
   105    92    91    1
   106   109   108   ar
   107   115   113   ar
   108   110   108   ar
   109   110   113   ar
   110   108   107    1
   111   107   104    1
   112   104   103    1
   113   104   105    1
   114   105   106    2
