@<TRIPOS>MOLECULE
tmp/1y9gA00.pdb
 80 80 0 0 0
SMALL
GASTEIGER

@<TRIPOS>ATOM
      1  N         14.1830    9.0160   26.9360 N.3    40  ASN40      -0.1240
      2  CA        15.1070   10.1410   27.0160 C.3    40  ASN40       0.1653
      3  C         16.4910    9.6280   27.3590 C.2    40  ASN40       0.2266
      4  O         16.7800    9.3010   28.5240 O.2    40  ASN40      -0.2867
      5  CB        14.6350   11.1690   28.0570 C.3    40  ASN40       0.1155
      6  CG        15.4980   12.4500   28.0840 C.2    40  ASN40       0.2627
      7  OD1       16.5420   12.5410   27.4180 O.2    40  ASN40      -0.2716
      8  ND2       15.0330   13.4560   28.8400 N.am   40  ASN40      -0.0877
      9  N         19.0350   11.2180   27.7540 N.3    42  GLY42      -0.1209
     10  CA        19.7430   12.3330   28.4090 C.3    42  GLY42       0.1959
     11  C         19.1280   12.8150   29.7060 C.2    42  GLY42       0.2652
     12  O         19.5660   13.8070   30.2760 O.2    42  GLY42      -0.2714
     13  N         18.1500   12.1010   30.2450 N.am   43  GLY43      -0.1718
     14  CA        17.4430   12.6200   31.4000 C.2    43  GLY43       0.1480
     15  C         16.3390   11.7480   32.0040 C.2    43  GLY43       0.2820
     16  O         15.8450   10.8430   31.3690 O.2    43  GLY43      -0.2669
     17  N         15.8770   12.1620   33.1840 N.am   44  ILE44      -0.1929
     18  CA        14.9630   11.3820   33.9800 C.3    44  ILE44       0.1730
     19  C         13.5100   11.8780   33.8750 C.2    44  ILE44       0.2616
     20  O         12.5930   11.3010   34.4620 O.2    44  ILE44      -0.2715
     21  CB        15.4390   11.2980   35.4200 C.3    44  ILE44       0.0290
     22  CG1       14.8060   10.0250   36.0710 C.3    44  ILE44       0.0022
     23  CG2       15.1690   12.6100   36.1660 C.3    44  ILE44       0.0023
     24  CD1       15.3310    9.7350   37.4300 C.3    44  ILE44       0.0001
     25  N         13.3140   12.9430   33.1170 N.am   45  GLU45      -0.1963
     26  CA        11.9790   13.3170   32.6650 C.3    45  GLU45       0.1733
     27  C         11.8430   13.3470   31.1230 C.2    45  GLU45       0.2616
     28  O         12.8090   13.0670   30.4200 O.2    45  GLU45      -0.2715
     29  CB        11.5490   14.5730   33.3620 C.3    45  GLU45       0.0429
     30  CG        10.8640   14.1930   34.7090 C.3    45  GLU45       0.1163
     31  CD        10.7880   15.3610   35.6150 C.2    45  GLU45       0.3649
     32  OE1       10.3990   16.4920   35.1100 O.co2  45  GLU45      -0.2457
     33  OE2       11.1330   15.1900   36.8040 O.co2  45  GLU45      -0.2457
     34  N         10.6460   13.6340   30.6240 N.am   46  TRP46      -0.1960
     35  CA        10.3820   13.5900   29.1900 C.3    46  TRP46       0.1771
     36  C         11.2980   14.6090   28.4660 C.2    46  TRP46       0.2620
     37  O         11.4180   15.7650   28.9000 O.2    46  TRP46      -0.2715
     38  CB         8.9310   13.9140   28.9370 C.3    46  TRP46       0.0590
     39  CG         8.4820   13.7210   27.4810 C.ar   46  TRP46       0.0006
     40  CD1        7.8120   12.6490   26.9580 C.ar   46  TRP46       0.0946
     41  CD2        8.6410   14.6450   26.4120 C.ar   46  TRP46       0.0152
     42  NE1        7.5470   12.8600   25.6240 N.ar   46  TRP46      -0.2442
     43  CE2        8.0650   14.0660   25.2600 C.ar   46  TRP46       0.0810
     44  CE3        9.2260   15.9400   26.3020 C.ar   46  TRP46       0.0012
     45  CZ2        8.0460   14.7280   23.9940 C.ar   46  TRP46       0.0191
     46  CZ3        9.2010   16.5980   25.0540 C.ar   46  TRP46       0.0001
     47  CH2        8.6210   15.9620   23.9130 C.ar   46  TRP46       0.0015
     48  N         11.9140   14.1590   27.3780 N.am   47  GLY47      -0.1940
     49  CA        12.7960   14.9740   26.5590 C.3    47  GLY47       0.2014
     50  C         13.6440   14.1280   25.6000 C.2    47  GLY47       0.2638
     51  O         13.6800   12.9150   25.7210 O.2    47  GLY47      -0.2714
     52  N         14.2690   14.7830   24.6110 N.am   48  ASN48      -0.1972
     53  CA        15.2220   14.1450   23.7250 C.3    48  ASN48       0.1688
     54  C         14.6280   12.8730   23.1710 C.2    48  ASN48       0.2292
     55  O         15.2980   11.8810   23.0670 O.2    48  ASN48      -0.2864
     56  CB        16.4980   13.7470   24.4530 C.3    48  ASN48       0.1181
     57  CG        17.2980   14.9080   24.8990 C.2    48  ASN48       0.2629
     58  OD1       17.6900   15.7510   24.0560 O.2    48  ASN48      -0.2716
     59  ND2       17.4820   15.0180   26.2310 N.am   48  ASN48      -0.0877
     60  N         20.9180   14.6650   19.0220 N.3    74  PHE74      -0.1227
     61  CA        21.1530   14.3890   20.4540 C.3    74  PHE74       0.1736
     62  C         22.5760   14.8130   20.8560 C.2    74  PHE74       0.2596
     63  O         23.5400   14.3820   20.1940 O.2    74  PHE74      -0.2718
     64  CB        20.9030   12.9000   20.8580 C.3    74  PHE74       0.0547
     65  CG        21.0730   12.6490   22.3400 C.ar   74  PHE74      -0.0202
     66  CD1       20.0370   12.9360   23.2420 C.ar   74  PHE74      -0.0042
     67  CD2       22.2890   12.1670   22.8390 C.ar   74  PHE74      -0.0042
     68  CE1       20.2010   12.7430   24.5870 C.ar   74  PHE74      -0.0003
     69  CE2       22.4630   11.9980   24.1870 C.ar   74  PHE74      -0.0003
     70  CZ        21.4220   12.2500   25.0590 C.ar   74  PHE74      -0.0000
     71  N         22.6890   15.6180   21.9380 N.am   75  GLY75      -0.1942
     72  CA        23.9640   16.1350   22.4350 C.3    75  GLY75       0.2014
     73  C         24.3680   17.4740   21.8080 C.2    75  GLY75       0.2639
     74  O         25.4040   18.0530   22.1780 O.2    75  GLY75      -0.2714
     75  N         23.5640   17.9450   20.8590 N.am   76  SER76      -0.1949
     76  CA        23.8000   19.1640   20.1030 C.3    76  SER76       0.1924
     77  C         22.3990   19.7900   20.0700 C.2    76  SER76       0.2314
     78  O         21.6130   19.6290   21.0240 O.2    76  SER76      -0.2863
     79  CB        24.3700   18.7350   18.7460 C.3    76  SER76       0.2116
     80  OG        24.6510   19.8040   17.8910 O.3    76  SER76      -0.2180
@<TRIPOS>BOND
     1    80    79    1
     2    79    76    1
     3    60    61    1
     4    77    76    1
     5    77    78    2
     6    76    75    1
     7    63    62    2
     8    61    62    1
     9    61    64    1
    10    62    71   am
    11    64    65    1
    12    75    73   am
    13    73    74    2
    14    73    72    1
    15    71    72    1
    16    65    67   ar
    17    65    66   ar
    18    67    69   ar
    19    55    54    2
    20    54    53    1
    21    66    68   ar
    22    53    56    1
    23    53    52    1
    24    47    45   ar
    25    47    46   ar
    26    45    43   ar
    27    58    57    2
    28    69    70   ar
    29    56    57    1
    30    68    70   ar
    31    52    50   am
    32    57    59   am
    33    46    44   ar
    34    43    42   ar
    35    43    41   ar
    36    50    51    2
    37    50    49    1
    38    42    40   ar
    39    44    41   ar
    40    41    39   ar
    41    49    48    1
    42     1     2    1
    43    40    39   ar
    44     2     3    1
    45     2     5    1
    46     3     4    2
    47    48    36   am
    48     7     6    2
    49    39    38    1
    50     9    10    1
    51     5     6    1
    52     6     8   am
    53    10    11    1
    54    36    37    2
    55    36    35    1
    56    38    35    1
    57    35    34    1
    58    11    13    1
    59    11    12    2
    60    13    14    2
    61    28    27    2
    62    34    27   am
    63    27    26    1
    64    16    15    2
    65    14    15    1
    66    15    17   am
    67    26    25    1
    68    26    29    1
    69    25    19   am
    70    17    18    1
    71    29    30    1
    72    19    18    1
    73    19    20    2
    74    18    21    1
    75    30    31    1
    76    32    31   ar
    77    21    22    1
    78    21    23    1
    79    31    33   ar
    80    22    24    1
