@<TRIPOS>MOLECULE
tmp/1y9lA00.pdb
 154 149 0 0 0
SMALL
GASTEIGER

@<TRIPOS>ATOM
      1  N         18.7420   38.7480    0.4460 N.3     4  TRP4       -0.1241
      2  CA        19.0160   39.9860   -0.2820 C.3     4  TRP4        0.1605
      3  C         20.2890   39.8370   -1.0860 C.2     4  TRP4        0.2264
      4  O         21.1580   39.0250   -0.7300 O.2     4  TRP4       -0.2867
      5  CB        19.2490   41.1440    0.6860 C.3     4  TRP4        0.0550
      6  CG        18.1250   41.5620    1.5830 C.ar    4  TRP4        0.0003
      7  CD1       17.2490   42.6060    1.3870 C.ar    4  TRP4        0.0946
      8  CD2       17.8420   41.0450    2.8850 C.ar    4  TRP4        0.0152
      9  NE1       16.3880   42.7250    2.4670 N.ar    4  TRP4       -0.2442
     10  CE2       16.7310   41.7720    3.3950 C.ar    4  TRP4        0.0810
     11  CE3       18.3850   39.9940    3.6560 C.ar    4  TRP4        0.0012
     12  CZ2       16.1730   41.4990    4.6530 C.ar    4  TRP4        0.0191
     13  CZ3       17.8270   39.7250    4.9020 C.ar    4  TRP4        0.0001
     14  CH2       16.7420   40.4670    5.3870 C.ar    4  TRP4        0.0015
     15  N         23.3600   42.6580   -2.7960 N.3     6  ILE6       -0.1245
     16  CA        23.8870   44.0310   -2.7540 C.3     6  ILE6        0.1561
     17  C         23.7660   44.7510   -4.0840 C.2     6  ILE6        0.2260
     18  O         24.0350   44.1800   -5.1760 O.2     6  ILE6       -0.2867
     19  CB        25.3740   43.9820   -2.3720 C.3     6  ILE6        0.0252
     20  CG1       25.5090   43.4910   -0.9290 C.3     6  ILE6        0.0019
     21  CG2       26.0680   45.3060   -2.6440 C.3     6  ILE6        0.0019
     22  CD1       26.9730   43.1440   -0.5330 C.3     6  ILE6        0.0001
     23  N         22.7040   37.0090    0.8070 N.3    22  TRP22      -0.1227
     24  CA        22.7410   37.2510    2.2600 C.3    22  TRP22       0.1737
     25  C         21.3920   36.8150    2.7990 C.2    22  TRP22       0.2596
     26  O         20.3190   37.2200    2.3210 O.2    22  TRP22      -0.2718
     27  CB        22.9990   38.7380    2.5810 C.3    22  TRP22       0.0564
     28  CG        24.2010   39.2460    1.8700 C.ar   22  TRP22       0.0003
     29  CD1       24.2410   39.6810    0.5730 C.ar   22  TRP22       0.0946
     30  CD2       25.5350   39.4080    2.3780 C.ar   22  TRP22       0.0152
     31  NE1       25.5000   40.0790    0.2220 N.ar   22  TRP22      -0.2442
     32  CE2       26.3230   39.9060    1.3080 C.ar   22  TRP22       0.0810
     33  CE3       26.1610   39.1460    3.6140 C.ar   22  TRP22       0.0012
     34  CZ2       27.6900   40.1730    1.4350 C.ar   22  TRP22       0.0191
     35  CZ3       27.5290   39.4300    3.7340 C.ar   22  TRP22       0.0001
     36  CH2       28.2760   39.9320    2.6600 C.ar   22  TRP22       0.0015
     37  N         21.4100   35.9760    3.8250 N.am   23  SER23      -0.1938
     38  CA        20.1660   35.4170    4.3390 C.3    23  SER23       0.2055
     39  C         20.0740   35.6250    5.8440 C.2    23  SER23       0.2643
     40  O         21.0860   35.5570    6.5400 O.2    23  SER23      -0.2714
     41  CB        20.0820   33.9290    3.9780 C.3    23  SER23       0.2130
     42  OG        18.7990   33.3560    4.2050 O.3    23  SER23      -0.2179
     43  N         18.8640   35.9270    6.2940 N.am   24  PHE24      -0.1973
     44  CA        18.5410   36.1020    7.7150 C.3    24  PHE24       0.1639
     45  C         17.3400   35.2420    8.0500 C.2    24  PHE24       0.2290
     46  O         16.2710   35.3820    7.4510 O.2    24  PHE24      -0.2864
     47  CB        18.2320   37.5750    8.0410 C.3    24  PHE24       0.0560
     48  CG        17.6820   37.7790    9.4280 C.ar   24  PHE24      -0.0200
     49  CD1       18.4800   37.5470   10.5350 C.ar   24  PHE24      -0.0042
     50  CD2       16.3490   38.1880    9.6260 C.ar   24  PHE24      -0.0042
     51  CE1       17.9830   37.7310   11.8250 C.ar   24  PHE24      -0.0003
     52  CE2       15.8270   38.3590   10.9230 C.ar   24  PHE24      -0.0003
     53  CZ        16.6450   38.1240   12.0200 C.ar   24  PHE24      -0.0000
     54  N         22.4330   34.4080   10.3090 N.3    31  ILE31      -0.1245
     55  CA        22.8350   35.1440    9.0970 C.3    31  ILE31       0.1561
     56  C         23.9630   34.4310    8.3460 C.2    31  ILE31       0.2260
     57  O         25.0300   34.1480    8.8990 O.2    31  ILE31      -0.2867
     58  CB        23.2500   36.6240    9.3790 C.3    31  ILE31       0.0252
     59  CG1       22.1110   37.3980   10.0530 C.3    31  ILE31       0.0019
     60  CG2       23.6840   37.3240    8.0640 C.3    31  ILE31       0.0019
     61  CD1       22.5170   38.8160   10.4870 C.3    31  ILE31       0.0001
     62  N         27.1920   37.8600   15.1650 N.3    44  TYR44      -0.1241
     63  CA        26.7820   39.2660   14.9670 C.3    44  TYR44       0.1605
     64  C         25.9450   39.8570   16.0990 C.2    44  TYR44       0.2264
     65  O         25.3760   39.1260   16.9350 O.2    44  TYR44      -0.2867
     66  CB        25.9880   39.4350   13.6400 C.3    44  TYR44       0.0534
     67  CG        24.5650   38.9470   13.7500 C.ar   44  TYR44      -0.0201
     68  CD1       23.5110   39.8190   14.0460 C.ar   44  TYR44      -0.0009
     69  CD2       24.2800   37.6050   13.5770 C.ar   44  TYR44      -0.0009
     70  CE1       22.1900   39.3590   14.1630 C.ar   44  TYR44       0.0417
     71  CE2       22.9890   37.1280   13.6920 C.ar   44  TYR44       0.0417
     72  CZ        21.9480   38.0020   13.9790 C.ar   44  TYR44       0.1957
     73  OH        20.6590   37.5140   14.0820 O.3    44  TYR44      -0.2866
     74  N         22.9820   43.2360   16.4370 N.3    46  PHE46      -0.1241
     75  CA        22.1730   44.2280   15.7300 C.3    46  PHE46       0.1605
     76  C         21.2500   44.9330   16.7080 C.2    46  PHE46       0.2264
     77  O         20.2390   44.3810   17.1620 O.2    46  PHE46      -0.2867
     78  CB        21.3680   43.5920   14.5890 C.3    46  PHE46       0.0534
     79  CG        20.5520   44.5920   13.8000 C.ar   46  PHE46      -0.0203
     80  CD1       21.1470   45.7260   13.2700 C.ar   46  PHE46      -0.0042
     81  CD2       19.1810   44.4240   13.6310 C.ar   46  PHE46      -0.0042
     82  CE1       20.4000   46.6670   12.5590 C.ar   46  PHE46      -0.0003
     83  CE2       18.4160   45.3600   12.9090 C.ar   46  PHE46      -0.0003
     84  CZ        19.0320   46.4860   12.3620 C.ar   46  PHE46      -0.0000
     85  N         24.6550   47.4240   13.1490 N.3    51  PHE51      -0.1241
     86  CA        24.9780   46.0290   12.8780 C.3    51  PHE51       0.1605
     87  C         26.4740   45.8410   12.8600 C.2    51  PHE51       0.2264
     88  O         27.1780   46.6000   12.2210 O.2    51  PHE51      -0.2867
     89  CB        24.4770   45.6380   11.4710 C.3    51  PHE51       0.0534
     90  CG        24.8620   44.2450   11.0630 C.ar   51  PHE51      -0.0203
     91  CD1       24.0240   43.1730   11.3600 C.ar   51  PHE51      -0.0042
     92  CD2       26.0460   43.9960   10.3830 C.ar   51  PHE51      -0.0042
     93  CE1       24.3750   41.8720   11.0250 C.ar   51  PHE51      -0.0003
     94  CE2       26.4210   42.6740   10.0220 C.ar   51  PHE51      -0.0003
     95  CZ        25.5470   41.6140   10.3340 C.ar   51  PHE51      -0.0000
     96  N         31.8880   37.1450    9.6880 N.3    55  PHE55      -0.1241
     97  CA        31.3420   36.0810    8.8290 C.3    55  PHE55       0.1605
     98  C         32.1950   34.8020    8.6550 C.2    55  PHE55       0.2264
     99  O         31.7540   33.8430    8.0060 O.2    55  PHE55      -0.2867
    100  CB        30.9500   36.6650    7.4610 C.3    55  PHE55       0.0534
    101  CG        29.6370   37.3820    7.4550 C.ar   55  PHE55      -0.0203
    102  CD1       28.4830   36.7600    6.9770 C.ar   55  PHE55      -0.0042
    103  CD2       29.5380   38.7120    7.9250 C.ar   55  PHE55      -0.0042
    104  CE1       27.2610   37.4290    6.9670 C.ar   55  PHE55      -0.0003
    105  CE2       28.3270   39.3850    7.9050 C.ar   55  PHE55      -0.0003
    106  CZ        27.1730   38.7490    7.4130 C.ar   55  PHE55      -0.0000
    107  N         34.5090   44.8630    2.3150 N.3    75  LEU75      -0.1245
    108  CA        33.1410   44.7030    2.7820 C.3    75  LEU75       0.1561
    109  C         33.1200   44.0040    4.1290 C.2    75  LEU75       0.2260
    110  O         32.4970   44.4660    5.0750 O.2    75  LEU75      -0.2867
    111  CB        32.3370   43.9040    1.7510 C.3    75  LEU75       0.0270
    112  CG        30.9220   43.5590    2.2110 C.3    75  LEU75       0.0019
    113  CD1       30.1300   44.8330    2.5280 C.3    75  LEU75       0.0001
    114  CD2       30.2350   42.6870    1.1860 C.3    75  LEU75       0.0001
    115  N         31.7980   45.4230    7.7590 N.3    79  LEU79      -0.1245
    116  CA        30.7370   44.7980    8.5260 C.3    79  LEU79       0.1561
    117  C         31.1920   44.4460    9.9320 C.2    79  LEU79       0.2260
    118  O         30.3800   44.5090   10.8700 O.2    79  LEU79      -0.2867
    119  CB        30.1380   43.6040    7.8130 C.3    79  LEU79       0.0270
    120  CG        29.5190   43.9430    6.4760 C.3    79  LEU79       0.0019
    121  CD1       29.0480   42.6510    5.7620 C.3    79  LEU79       0.0001
    122  CD2       28.3320   44.9150    6.6580 C.3    79  LEU79       0.0001
    123  N         22.0530   50.1520    9.6020 N.3    85  LEU85      -0.1245
    124  CA        21.0700   49.6510    8.6490 C.3    85  LEU85       0.1561
    125  C         19.8390   50.5460    8.6800 C.2    85  LEU85       0.2260
    126  O         19.3250   50.8510    9.7800 O.2    85  LEU85      -0.2867
    127  CB        20.7010   48.2020    8.9360 C.3    85  LEU85       0.0270
    128  CG        21.9040   47.2320    8.9900 C.3    85  LEU85       0.0019
    129  CD1       21.4780   45.7520    9.2110 C.3    85  LEU85       0.0001
    130  CD2       22.8200   47.3130    7.7860 C.3    85  LEU85       0.0001
    131  N         17.1970   47.7400    2.2850 N.3    94  ILE94      -0.1245
    132  CA        17.9010   48.2340    3.4660 C.3    94  ILE94       0.1561
    133  C         19.1160   49.0060    3.0060 C.2    94  ILE94       0.2260
    134  O         19.9140   48.4790    2.2290 O.2    94  ILE94      -0.2867
    135  CB        18.3410   47.0900    4.3440 C.3    94  ILE94       0.0252
    136  CG1       17.1280   46.2510    4.7980 C.3    94  ILE94       0.0019
    137  CG2       19.1030   47.5990    5.6220 C.3    94  ILE94       0.0019
    138  CD1       17.4480   44.9230    5.4380 C.3    94  ILE94       0.0001
    139  N         22.8100   50.4300    3.7700 N.3    96  ILE96      -0.1245
    140  CA        23.9310   50.2530    4.6790 C.3    96  ILE96       0.1561
    141  C         24.7490   51.5390    4.6640 C.2    96  ILE96       0.2260
    142  O         25.2760   51.9530    3.6140 O.2    96  ILE96      -0.2867
    143  CB        24.8210   49.0440    4.2660 C.3    96  ILE96       0.0252
    144  CG1       23.9760   47.7600    4.2200 C.3    96  ILE96       0.0019
    145  CG2       26.0470   48.9180    5.1640 C.3    96  ILE96       0.0019
    146  CD1       24.7160   46.5040    3.7870 C.3    96  ILE96       0.0001
    147  N         20.8200   46.7720    0.1580 N.3   106  LEU106     -0.1245
    148  CA        20.3600   45.3910    0.0870 C.3   106  LEU106      0.1561
    149  C         18.9950   45.3990   -0.5860 C.2   106  LEU106      0.2260
    150  O         18.0730   46.0980   -0.1180 O.2   106  LEU106     -0.2867
    151  CB        20.2700   44.7720    1.4970 C.3   106  LEU106      0.0270
    152  CG        21.6280   44.5330    2.1760 C.3   106  LEU106      0.0019
    153  CD1       21.4310   44.1410    3.6390 C.3   106  LEU106      0.0001
    154  CD2       22.4330   43.4430    1.4150 C.3   106  LEU106      0.0001
@<TRIPOS>BOND
     1    18    17    2
     2    17    16    1
     3    15    16    1
     4    16    19    1
     5    21    19    1
     6    19    20    1
     7     3     4    2
     8     3     2    1
     9    20    22    1
    10   149   150    2
    11   149   148    1
    12     2     1    1
    13     2     5    1
    14   148   147    1
    15   148   151    1
    16    31    29   ar
    17    31    32   ar
    18    29    28   ar
    19     5     6    1
    20    23    24    1
    21   114   112    1
    22    32    34   ar
    23    32    30   ar
    24     7     6   ar
    25     7     9   ar
    26   154   152    1
    27    34    36   ar
    28   151   152    1
    29     6     8   ar
    30   111   112    1
    31   111   108    1
    32    28    30   ar
    33    28    27    1
    34   152   153    1
    35   112   113    1
    36   134   133    2
    37    24    27    1
    38    24    25    1
    39   131   132    1
    40   107   108    1
    41    26    25    2
    42    30    33   ar
    43     9    10   ar
    44    36    35   ar
    45   108   109    1
    46    25    37   am
    47     8    10   ar
    48     8    11   ar
    49   133   132    1
    50    10    12   ar
    51   132   135    1
    52    33    35   ar
    53   142   141    2
    54    11    13   ar
    55   139   140    1
    56   146   144    1
    57    37    38    1
    58    41    42    1
    59    41    38    1
    60   109   110    2
    61   144   143    1
    62   143   140    1
    63   143   145    1
    64    38    39    1
    65   135   136    1
    66   135   137    1
    67    12    14   ar
    68   141   140    1
    69   136   138    1
    70    13    14   ar
    71   121   120    1
    72    39    43   am
    73    39    40    2
    74    43    44    1
    75   120   122    1
    76   120   119    1
    77   104   102   ar
    78   104   106   ar
    79   102   101   ar
    80   106   105   ar
    81    46    45    2
    82   101   100    1
    83   101   103   ar
    84   100    97    1
    85    44    47    1
    86    44    45    1
    87   115   116    1
    88   130   128    1
    89   119   116    1
    90   105   103   ar
    91    99    98    2
    92    47    48    1
    93    60    58    1
    94    56    57    2
    95    56    55    1
    96   116   117    1
    97   124   125    1
    98   124   127    1
    99   124   123    1
   100    98    97    1
   101   125   126    2
   102    97    96    1
   103   127   128    1
   104   128   129    1
   105    55    58    1
   106    55    54    1
   107    58    59    1
   108    48    50   ar
   109    48    49   ar
   110    50    52   ar
   111   117   118    2
   112    94    95   ar
   113    94    92   ar
   114    59    61    1
   115    95    93   ar
   116    92    90   ar
   117    49    51   ar
   118    52    53   ar
   119    93    91   ar
   120    90    91   ar
   121    90    89    1
   122    89    86    1
   123    51    53   ar
   124    88    87    2
   125    84    82   ar
   126    84    83   ar
   127    82    80   ar
   128    87    86    1
   129    86    85    1
   130    83    81   ar
   131    80    79   ar
   132    69    71   ar
   133    69    67   ar
   134    81    79   ar
   135    66    67    1
   136    66    63    1
   137    71    72   ar
   138    67    68   ar
   139    79    78    1
   140    72    73    1
   141    72    70   ar
   142    68    70   ar
   143    78    75    1
   144    63    62    1
   145    63    64    1
   146    75    74    1
   147    75    76    1
   148    64    65    2
   149    76    77    2
