@<TRIPOS>MOLECULE
tmp/1y9mA00.pdb
 72 71 0 0 0
SMALL
GASTEIGER

@<TRIPOS>ATOM
      1  N         34.7430    9.0970   18.1370 N.3    40  ASN40      -0.1240
      2  CA        35.6380   10.0800   17.4940 C.3    40  ASN40       0.1653
      3  C         36.9380    9.4250   17.0180 C.2    40  ASN40       0.2266
      4  O         37.8370    9.1520   17.8210 O.2    40  ASN40      -0.2867
      5  CB        35.9360   11.2340   18.4640 C.3    40  ASN40       0.1155
      6  CG        36.8300   12.3240   17.8500 C.2    40  ASN40       0.2627
      7  OD1       37.3060   12.2090   16.7070 O.2    40  ASN40      -0.2716
      8  ND2       37.0240   13.3990   18.5960 N.am   40  ASN40      -0.0877
      9  N         39.3620   10.6860   15.6450 N.3    42  GLY42      -0.1209
     10  CA        40.4950   11.6190   15.6730 C.3    42  GLY42       0.1959
     11  C         40.8260   12.2560   17.0140 C.2    42  GLY42       0.2651
     12  O         41.5910   13.2150   17.0690 O.2    42  GLY42      -0.2714
     13  N         40.2720   11.7430   18.1120 N.am   43  GLY43      -0.1732
     14  CA        40.5400   12.3520   19.4120 C.2    43  GLY43       0.1340
     15  C         39.8320   11.7290   20.6010 C.2    43  GLY43       0.2521
     16  O         38.9330   10.8970   20.4370 O.2    43  GLY43      -0.2816
     17  N         38.0720   13.3680   23.0280 N.3    45  GLU45      -0.1231
     18  CA        36.8310   14.0340   23.4250 C.3    45  GLU45       0.1699
     19  C         35.8400   13.9160   22.2770 C.2    45  GLU45       0.2592
     20  O         36.2120   13.4860   21.1830 O.2    45  GLU45      -0.2718
     21  CB        37.0780   15.5050   23.7760 C.3    45  GLU45       0.0402
     22  CG        38.0750   15.7300   24.9150 C.3    45  GLU45       0.1161
     23  CD        37.5270   15.3620   26.2780 C.2    45  GLU45       0.3649
     24  OE1       38.2440   15.5970   27.2710 O.co2  45  GLU45      -0.2457
     25  OE2       36.3940   14.8410   26.3630 O.co2  45  GLU45      -0.2457
     26  N         34.5810   14.2510   22.5520 N.am   46  TRP46      -0.1962
     27  CA        33.5010   14.1740   21.5780 C.3    46  TRP46       0.1771
     28  C         33.7980   15.0290   20.3330 C.2    46  TRP46       0.2620
     29  O         34.2950   16.1660   20.4430 O.2    46  TRP46      -0.2715
     30  CB        32.1790   14.6000   22.2500 C.3    46  TRP46       0.0590
     31  CG        30.9720   14.4500   21.3800 C.ar   46  TRP46       0.0006
     32  CD1       30.0940   13.3930   21.3400 C.ar   46  TRP46       0.0946
     33  CD2       30.5110   15.3960   20.4100 C.ar   46  TRP46       0.0152
     34  NE1       29.1080   13.6320   20.3940 N.ar   46  TRP46      -0.2442
     35  CE2       29.3420   14.8570   19.8160 C.ar   46  TRP46       0.0810
     36  CE3       30.9690   16.6600   19.9900 C.ar   46  TRP46       0.0012
     37  CZ2       28.6480   15.5180   18.8010 C.ar   46  TRP46       0.0191
     38  CZ3       30.2600   17.3250   18.9780 C.ar   46  TRP46       0.0001
     39  CH2       29.1130   16.7520   18.4030 C.ar   46  TRP46       0.0015
     40  N         33.4820   14.4880   19.1580 N.am   47  GLY47      -0.1940
     41  CA        33.6820   15.2070   17.9000 C.3    47  GLY47       0.2014
     42  C         33.8940   14.2260   16.7650 C.2    47  GLY47       0.2638
     43  O         34.0040   13.0210   17.0010 O.2    47  GLY47      -0.2714
     44  N         33.9450   14.7340   15.5320 N.am   48  ASN48      -0.1972
     45  CA        34.0980   13.8910   14.3310 C.3    48  ASN48       0.1688
     46  C         33.2270   12.6430   14.3550 C.2    48  ASN48       0.2292
     47  O         33.6900   11.5730   13.9860 O.2    48  ASN48      -0.2864
     48  CB        35.5530   13.4120   14.1820 C.3    48  ASN48       0.1181
     49  CG        36.5140   14.5280   13.9600 C.2    48  ASN48       0.2629
     50  OD1       36.3850   15.2820   12.9900 O.2    48  ASN48      -0.2716
     51  ND2       37.5070   14.6400   14.8670 N.am   48  ASN48      -0.0877
     52  N         36.0200   13.5430    7.1790 N.3    74  PHE74      -0.1227
     53  CA        36.9680   13.3250    8.2670 C.3    74  PHE74       0.1736
     54  C         38.3780   13.6220    7.7610 C.2    74  PHE74       0.2596
     55  O         38.7370   13.1960    6.6520 O.2    74  PHE74      -0.2718
     56  CB        36.9010   11.8700    8.7800 C.3    74  PHE74       0.0547
     57  CG        37.8440   11.5870    9.9220 C.ar   74  PHE74      -0.0202
     58  CD1       37.5680   12.0770   11.2040 C.ar   74  PHE74      -0.0042
     59  CD2       39.0190   10.8610    9.7110 C.ar   74  PHE74      -0.0042
     60  CE1       38.4500   11.8350   12.2640 C.ar   74  PHE74      -0.0003
     61  CE2       39.9080   10.6110   10.7610 C.ar   74  PHE74      -0.0003
     62  CZ        39.6270   11.1110   12.0440 C.ar   74  PHE74      -0.0000
     63  N         39.1560   14.3560    8.5540 N.am   75  GLY75      -0.1942
     64  CA        40.5090   14.7340    8.1440 C.3    75  GLY75       0.2014
     65  C         40.5340   16.1430    7.5610 C.2    75  GLY75       0.2639
     66  O         41.5880   16.7670    7.4510 O.2    75  GLY75      -0.2714
     67  N         39.3610   16.6330    7.1620 N.am   76  SER76      -0.1949
     68  CA        39.2270   18.0230    6.7560 C.3    76  SER76       0.1924
     69  C         37.9590   18.6380    7.3970 C.2    76  SER76       0.2314
     70  O         37.6850   18.3780    8.5740 O.2    76  SER76      -0.2863
     71  CB        39.2970   18.1530    5.2270 C.3    76  SER76       0.2116
     72  OG        38.0530   17.8780    4.6280 O.3    76  SER76      -0.2180
@<TRIPOS>BOND
     1    72    71    1
     2    71    68    1
     3    55    54    2
     4    68    67    1
     5    68    69    1
     6    67    65   am
     7    52    53    1
     8    69    70    2
     9    66    65    2
    10    65    64    1
    11    54    53    1
    12    54    63   am
    13    64    63    1
    14    53    56    1
    15    56    57    1
    16    59    57   ar
    17    59    61   ar
    18    57    58   ar
    19    61    62   ar
    20    58    60   ar
    21    62    60   ar
    22    50    49    2
    23    49    48    1
    24    49    51   am
    25    47    46    2
    26    48    45    1
    27    45    46    1
    28    45    44    1
    29    44    42   am
    30     9    10    1
    31    10    11    1
    32     7     6    2
    33    42    43    2
    34    42    41    1
    35    11    12    2
    36    11    13    1
    37     3     2    1
    38     3     4    2
    39     2     1    1
    40     2     5    1
    41     6     5    1
    42     6     8   am
    43    41    40    1
    44    13    14    2
    45    39    37   ar
    46    39    38   ar
    47    37    35   ar
    48    38    36   ar
    49    40    28   am
    50    14    15    1
    51    35    34   ar
    52    35    33   ar
    53    36    33   ar
    54    28    29    2
    55    28    27    1
    56    34    32   ar
    57    33    31   ar
    58    16    15    2
    59    20    19    2
    60    32    31   ar
    61    31    30    1
    62    27    30    1
    63    27    26    1
    64    19    26   am
    65    19    18    1
    66    17    18    1
    67    18    21    1
    68    21    22    1
    69    22    23    1
    70    23    25   ar
    71    23    24   ar
