@<TRIPOS>MOLECULE
tmp/1y9qA00.pdb
 147 140 0 0 0
SMALL
GASTEIGER

@<TRIPOS>ATOM
      1  N         55.5290   17.3600    2.0880 N.3    48  ILE48      -0.1231
      2  CA        56.3710   17.2340    0.9120 C.3    48  ILE48       0.1692
      3  C         57.7630   16.8080    1.3670 C.2    48  ILE48       0.2591
      4  O         58.4250   16.0060    0.7090 O.2    48  ILE48      -0.2718
      5  CB        56.4660   18.5770    0.1550 C.3    48  ILE48       0.0266
      6  CG1       55.1000   18.9190   -0.4510 C.3    48  ILE48       0.0019
      7  CG2       57.5540   18.4970   -0.9220 C.3    48  ILE48       0.0020
      8  CD1       55.0600   20.2340   -1.2250 C.3    48  ILE48       0.0001
      9  N         58.1990   17.3320    2.5070 N.am   49  ALA49      -0.1980
     10  CA        59.5220   16.9970    3.0200 C.3    49  ALA49       0.1597
     11  C         59.6300   15.5220    3.3970 C.2    49  ALA49       0.2287
     12  O         60.6690   14.8900    3.1800 O.2    49  ALA49      -0.2864
     13  CB        59.8620   17.8760    4.2180 C.3    49  ALA49       0.0319
     14  N         59.9170   13.3500    0.1980 N.3    52  TRP52      -0.1241
     15  CA        61.2690   13.3180   -0.3520 C.3    52  TRP52       0.1605
     16  C         62.1620   12.4250    0.5010 C.2    52  TRP52       0.2264
     17  O         63.0260   11.7140   -0.0110 O.2    52  TRP52      -0.2867
     18  CB        61.8690   14.7250   -0.4250 C.3    52  TRP52       0.0550
     19  CG        61.4520   15.4830   -1.6480 C.ar   52  TRP52       0.0003
     20  CD1       60.4030   16.3520   -1.7620 C.ar   52  TRP52       0.0946
     21  CD2       62.0450   15.3950   -2.9480 C.ar   52  TRP52       0.0152
     22  NE1       60.3060   16.8090   -3.0540 N.ar   52  TRP52      -0.2442
     23  CE2       61.3010   16.2360   -3.8030 C.ar   52  TRP52       0.0810
     24  CE3       63.1330   14.6870   -3.4730 C.ar   52  TRP52       0.0012
     25  CZ2       61.6110   16.3870   -5.1590 C.ar   52  TRP52       0.0191
     26  CZ3       63.4420   14.8380   -4.8190 C.ar   52  TRP52       0.0001
     27  CH2       62.6830   15.6820   -5.6470 C.ar   52  TRP52       0.0015
     28  N         60.5800   11.5050   -6.9380 N.3    62  PHE62      -0.1241
     29  CA        59.4060   12.0740   -6.2820 C.3    62  PHE62       0.1605
     30  C         58.2130   11.6780   -7.1630 C.2    62  PHE62       0.2264
     31  O         57.1340   11.3480   -6.6680 O.2    62  PHE62      -0.2867
     32  CB        59.5470   13.6020   -6.2140 C.3    62  PHE62       0.0534
     33  CG        58.3960   14.3030   -5.5380 C.ar   62  PHE62      -0.0203
     34  CD1       58.3100   14.3580   -4.1530 C.ar   62  PHE62      -0.0042
     35  CD2       57.4040   14.9210   -6.2960 C.ar   62  PHE62      -0.0042
     36  CE1       57.2530   15.0220   -3.5270 C.ar   62  PHE62      -0.0003
     37  CE2       56.3430   15.5880   -5.6820 C.ar   62  PHE62      -0.0003
     38  CZ        56.2690   15.6390   -4.2940 C.ar   62  PHE62      -0.0000
     39  N         53.4290   23.1400   -5.9720 N.3    86  ILE86      -0.1245
     40  CA        54.2950   22.4300   -6.9090 C.3    86  ILE86       0.1561
     41  C         53.6530   22.2370   -8.2800 C.2    86  ILE86       0.2260
     42  O         52.5700   21.6660   -8.3900 O.2    86  ILE86      -0.2867
     43  CB        54.6600   21.0190   -6.3820 C.3    86  ILE86       0.0252
     44  CG1       55.0960   21.0880   -4.9200 C.3    86  ILE86       0.0019
     45  CG2       55.7690   20.4130   -7.2380 C.3    86  ILE86       0.0019
     46  CD1       56.2830   21.9710   -4.6670 C.3    86  ILE86       0.0001
     47  N         60.3640   20.8960  -11.8110 N.3   101  PHE101     -0.1241
     48  CA        59.2320   21.5520  -11.1710 C.3   101  PHE101      0.1605
     49  C         59.3110   23.0700  -11.2130 C.2   101  PHE101      0.2264
     50  O         60.3870   23.6500  -11.3560 O.2   101  PHE101     -0.2867
     51  CB        59.1650   21.1700   -9.6950 C.3   101  PHE101      0.0534
     52  CG        59.2740   19.7060   -9.4350 C.ar  101  PHE101     -0.0203
     53  CD1       58.1580   18.8840   -9.5160 C.ar  101  PHE101     -0.0042
     54  CD2       60.4970   19.1490   -9.0830 C.ar  101  PHE101     -0.0042
     55  CE1       58.2580   17.5220   -9.2460 C.ar  101  PHE101     -0.0003
     56  CE2       60.6130   17.7920   -8.8110 C.ar  101  PHE101     -0.0003
     57  CZ        59.4900   16.9760   -8.8920 C.ar  101  PHE101     -0.0000
     58  N         58.1640   25.8860   -8.6810 N.3   103  ILE103     -0.1245
     59  CA        57.7010   26.0400   -7.3030 C.3   103  ILE103      0.1561
     60  C         57.3410   27.4680   -6.9100 C.2   103  ILE103      0.2260
     61  O         58.1050   28.3960   -7.1600 O.2   103  ILE103     -0.2867
     62  CB        58.7860   25.5690   -6.3080 C.3   103  ILE103      0.0252
     63  CG1       59.3040   24.1810   -6.7020 C.3   103  ILE103      0.0019
     64  CG2       58.2350   25.5740   -4.8920 C.3   103  ILE103      0.0019
     65  CD1       58.2220   23.1520   -6.8690 C.3   103  ILE103      0.0001
     66  N         61.2520   26.3470    3.5610 N.3   111  GLN111     -0.1245
     67  CA        61.1750   24.9020    3.3960 C.3   111  GLN111      0.1566
     68  C         62.5270   24.2250    3.6050 C.2   111  GLN111      0.2260
     69  O         63.4260   24.3710    2.7800 O.2   111  GLN111     -0.2867
     70  CB        60.6630   24.5960    1.9830 C.3   111  GLN111      0.0367
     71  CG        60.4350   23.1380    1.6490 C.3   111  GLN111      0.0905
     72  CD        59.2740   22.5470    2.4050 C.2   111  GLN111      0.2608
     73  OE1       58.3390   23.2540    2.7910 O.2   111  GLN111     -0.2717
     74  NE2       59.3140   21.2400    2.6100 N.am  111  GLN111     -0.0878
     75  N         64.7870   20.7610    3.9270 N.3   112  SER112     -0.1217
     76  CA        64.7200   19.3920    3.4160 C.3   112  SER112      0.1889
     77  C         65.8070   18.4970    3.9770 C.2   112  SER112      0.2288
     78  O         66.8820   18.9710    4.3490 O.2   112  SER112     -0.2866
     79  CB        64.8630   19.3890    1.8920 C.3   112  SER112      0.2089
     80  OG        63.8280   20.1090    1.2690 O.3   112  SER112     -0.2183
     81  N         68.7360   14.4150   -0.0410 N.3   115  HIS115     -0.1241
     82  CA        68.1000   13.5620   -1.0370 C.3   115  HIS115      0.1621
     83  C         69.1160   12.4390   -1.2170 C.2   115  HIS115      0.2264
     84  O         70.1610   12.4490   -0.5590 O.2   115  HIS115     -0.2867
     85  CB        67.8620   14.3150   -2.3470 C.3   115  HIS115      0.0745
     86  CG        66.8770   15.4390   -2.2200 C.ar  115  HIS115      0.0817
     87  ND1       65.7880   15.3780   -1.3740 N.ar  115  HIS115     -0.2268
     88  CD2       66.8060   16.6390   -2.8400 C.ar  115  HIS115      0.1154
     89  CE1       65.0910   16.4950   -1.4800 C.ar  115  HIS115      0.1986
     90  NE2       65.6850   17.2760   -2.3630 N.ar  115  HIS115     -0.2212
     91  N         70.6950   19.4900   -7.6240 N.3   121  GLU121     -0.1245
     92  CA        69.5880   20.3990   -7.9120 C.3   121  GLU121      0.1567
     93  C         70.0430   21.6840   -8.5670 C.2   121  GLU121      0.2260
     94  O         71.1300   22.1910   -8.2740 O.2   121  GLU121     -0.2867
     95  CB        68.8200   20.7550   -6.6350 C.3   121  GLU121      0.0388
     96  CG        67.9000   19.6640   -6.1440 C.3   121  GLU121      0.1160
     97  CD        67.0340   20.1180   -4.9860 C.2   121  GLU121      0.3649
     98  OE1       66.4470   21.2150   -5.0760 O.co2 121  GLU121     -0.2457
     99  OE2       66.9360   19.3750   -3.9940 O.co2 121  GLU121     -0.2457
    100  N         69.3770   20.7850    3.1510 N.3   154  HIS154     -0.1241
    101  CA        69.2330   21.9820    2.3310 C.3   154  HIS154      0.1621
    102  C         67.8700   22.5950    2.5620 C.2   154  HIS154      0.2264
    103  O         67.0850   22.0880    3.3590 O.2   154  HIS154     -0.2867
    104  CB        69.4480   21.6720    0.8320 C.3   154  HIS154      0.0745
    105  CG        68.4820   20.6840    0.2500 C.ar  154  HIS154      0.0817
    106  ND1       68.5220   19.3380    0.5390 N.ar  154  HIS154     -0.2268
    107  CD2       67.4790   20.8430   -0.6520 C.ar  154  HIS154      0.1154
    108  CE1       67.5890   18.7090   -0.1570 C.ar  154  HIS154      0.1986
    109  NE2       66.9430   19.6020   -0.8870 N.ar  154  HIS154     -0.2212
    110  N         64.8300   25.9820    1.1160 N.3   156  TYR156     -0.1241
    111  CA        64.4360   27.0880    0.2520 C.3   156  TYR156      0.1605
    112  C         63.5820   28.0460    1.0620 C.2   156  TYR156      0.2264
    113  O         62.7840   27.6150    1.8880 O.2   156  TYR156     -0.2867
    114  CB        63.6060   26.5750   -0.9210 C.3   156  TYR156      0.0534
    115  CG        64.0600   25.2380   -1.4460 C.ar  156  TYR156     -0.0201
    116  CD1       63.7370   24.0580   -0.7750 C.ar  156  TYR156     -0.0009
    117  CD2       64.8340   25.1510   -2.6000 C.ar  156  TYR156     -0.0009
    118  CE1       64.1730   22.8230   -1.2420 C.ar  156  TYR156      0.0417
    119  CE2       65.2760   23.9210   -3.0750 C.ar  156  TYR156      0.0417
    120  CZ        64.9430   22.7650   -2.3900 C.ar  156  TYR156      0.1957
    121  OH        65.3880   21.5570   -2.8550 O.3   156  TYR156     -0.2866
    122  N         60.2600   29.7870   -8.5220 N.3   165  PHE165     -0.1241
    123  CA        61.5230   29.3430   -9.0960 C.3   165  PHE165      0.1605
    124  C         61.4110   27.9840   -9.7600 C.2   165  PHE165      0.2264
    125  O         60.5670   27.1690   -9.3890 O.2   165  PHE165     -0.2867
    126  CB        62.6160   29.3050   -8.0180 C.3   165  PHE165      0.0534
    127  CG        62.3700   28.3020   -6.9110 C.ar  165  PHE165     -0.0203
    128  CD1       63.0040   27.0640   -6.9220 C.ar  165  PHE165     -0.0042
    129  CD2       61.5370   28.6150   -5.8390 C.ar  165  PHE165     -0.0042
    130  CE1       62.8180   26.1520   -5.8810 C.ar  165  PHE165     -0.0003
    131  CE2       61.3430   27.7120   -4.7950 C.ar  165  PHE165     -0.0003
    132  CZ        61.9870   26.4770   -4.8160 C.ar  165  PHE165     -0.0000
    133  N         62.8870   24.3590  -10.4330 N.3   167  ASN167     -0.1240
    134  CA        63.7670   23.4470   -9.7250 C.3   167  ASN167      0.1653
    135  C         63.9770   22.1950  -10.5660 C.2   167  ASN167      0.2266
    136  O         63.0280   21.4750  -10.8560 O.2   167  ASN167     -0.2867
    137  CB        63.1550   23.0900   -8.3630 C.3   167  ASN167      0.1155
    138  CG        64.0430   22.1670   -7.5320 C.2   167  ASN167      0.2627
    139  OD1       65.2730   22.2660   -7.5520 O.2   167  ASN167     -0.2716
    140  ND2       63.4140   21.2810   -6.7730 N.am  167  ASN167     -0.0877
    141  N         65.7020   18.6000  -10.6370 N.3   169  VAL169     -0.1245
    142  CA        66.3090   17.6120   -9.7430 C.3   169  VAL169      0.1561
    143  C         66.8990   16.5130  -10.6270 C.2   169  VAL169      0.2260
    144  O         66.1680   15.7980  -11.3160 O.2   169  VAL169     -0.2867
    145  CB        65.2650   17.0060   -8.7820 C.3   169  VAL169      0.0252
    146  CG1       65.9230   15.9920   -7.8630 C.3   169  VAL169      0.0019
    147  CG2       64.6140   18.1150   -7.9640 C.3   169  VAL169      0.0019
@<TRIPOS>BOND
     1    47    48    1
     2    50    49    2
     3   144   143    2
     4    49    48    1
     5    48    51    1
     6   136   135    2
     7   141   142    1
     8   143   142    1
     9   135   134    1
    10   133   134    1
    11   124   125    2
    12   124   123    1
    13   142   145    1
    14   134   137    1
    15    51    52    1
    16    53    52   ar
    17    53    55   ar
    18    52    54   ar
    19    55    57   ar
    20   123   122    1
    21   123   126    1
    22    54    56   ar
    23    57    56   ar
    24   145   147    1
    25   145   146    1
    26    58    59    1
    27    93    94    2
    28    93    92    1
    29    42    41    2
    30   137   138    1
    31    41    40    1
    32   126   127    1
    33    92    91    1
    34    92    95    1
    35   139   138    2
    36   138   140   am
    37    59    60    1
    38    59    62    1
    39    45    43    1
    40    30    31    2
    41    30    29    1
    42    61    60    2
    43    28    29    1
    44   128   127   ar
    45   128   130   ar
    46   127   129   ar
    47    40    43    1
    48    40    39    1
    49    65    63    1
    50    63    62    1
    51    95    96    1
    52    43    44    1
    53    62    64    1
    54    35    37   ar
    55    35    33   ar
    56    29    32    1
    57    32    33    1
    58    96    97    1
    59   130   132   ar
    60   129   131   ar
    61    37    38   ar
    62    27    25   ar
    63    27    26   ar
    64    33    34   ar
    65    25    23   ar
    66    98    97   ar
    67    97    99   ar
    68    44    46    1
    69    26    24   ar
    70   132   131   ar
    71    38    36   ar
    72    34    36   ar
    73    23    22   ar
    74    23    21   ar
    75    24    21   ar
    76   119   117   ar
    77   119   120   ar
    78    22    20   ar
    79    21    19   ar
    80   121   120    1
    81    88    90   ar
    82    88    86   ar
    83   117   115   ar
    84   120   118   ar
    85    90    89   ar
    86    85    86    1
    87    85    82    1
    88    86    87   ar
    89    20    19   ar
    90    19    18    1
    91    89    87   ar
    92   115   114    1
    93   115   116   ar
    94   118   116   ar
    95     8     6    1
    96    83    82    1
    97    83    84    2
    98    82    81    1
    99     7     5    1
   100   114   111    1
   101   109   107   ar
   102   109   108   ar
   103   107   105   ar
   104     6     5    1
   105    18    15    1
   106    15    14    1
   107    15    16    1
   108   108   106   ar
   109    17    16    2
   110     5     2    1
   111   105   106   ar
   112   105   104    1
   113   111   112    1
   114   111   110    1
   115     4     3    2
   116   104   101    1
   117     2     3    1
   118     2     1    1
   119   112   113    2
   120    80    79    1
   121     3     9   am
   122    71    70    1
   123    71    72    1
   124    79    76    1
   125    70    67    1
   126   101   102    1
   127   101   100    1
   128    72    74   am
   129    72    73    2
   130     9    10    1
   131   102   103    2
   132    69    68    2
   133    10    11    1
   134    10    13    1
   135    12    11    2
   136    67    66    1
   137    67    68    1
   138    76    75    1
   139    76    77    1
   140    77    78    2
