@<TRIPOS>MOLECULE
tmp/1y9tA00.pdb
 175 167 0 0 0
SMALL
GASTEIGER

@<TRIPOS>ATOM
      1  N         14.5260   35.7790    5.1070 N.3     2  LYS2       -0.1245
      2  CA        14.6060   36.7230    3.9970 C.3     2  LYS2        0.1561
      3  C         16.0180   36.6600    3.3960 C.2     2  LYS2        0.2260
      4  O         16.9670   36.2710    4.0830 O.2     2  LYS2       -0.2867
      5  CB        14.2540   38.1420    4.4630 C.3     2  LYS2        0.0271
      6  CG        12.7330   38.4270    4.5780 C.3     2  LYS2        0.0035
      7  CD        12.4640   39.7900    5.2020 C.3     2  LYS2        0.0206
      8  CE        10.9560   40.1420    5.3130 C.3     2  LYS2        0.1093
      9  NZ        10.1200   38.9750    5.6810 N.3     2  LYS2       -0.1314
     10  N         18.7500   38.7890    0.4390 N.3     4  TRP4       -0.1241
     11  CA        19.0190   40.0020   -0.2940 C.3     4  TRP4        0.1605
     12  C         20.2810   39.8260   -1.1000 C.2     4  TRP4        0.2264
     13  O         21.1400   38.9860   -0.7620 O.2     4  TRP4       -0.2867
     14  CB        19.2710   41.1700    0.6710 C.3     4  TRP4        0.0550
     15  CG        18.1710   41.6080    1.5840 C.ar    4  TRP4        0.0003
     16  CD1       17.2690   42.6280    1.3740 C.ar    4  TRP4        0.0946
     17  CD2       17.8910   41.0970    2.8990 C.ar    4  TRP4        0.0152
     18  NE1       16.4230   42.7420    2.4570 N.ar    4  TRP4       -0.2442
     19  CE2       16.8100   41.8440    3.4170 C.ar    4  TRP4        0.0810
     20  CE3       18.4630   40.0830    3.6940 C.ar    4  TRP4        0.0012
     21  CZ2       16.2570   41.5840    4.6790 C.ar    4  TRP4        0.0191
     22  CZ3       17.9190   39.8250    4.9480 C.ar    4  TRP4        0.0001
     23  CH2       16.8260   40.5730    5.4290 C.ar    4  TRP4        0.0015
     24  N         23.3770   42.6200   -2.7840 N.3     6  ILE6       -0.1245
     25  CA        23.9180   43.9800   -2.6910 C.3     6  ILE6        0.1561
     26  C         23.8550   44.6880   -4.0450 C.2     6  ILE6        0.2260
     27  O         24.1360   44.0810   -5.1010 O.2     6  ILE6       -0.2867
     28  CB        25.4090   43.9460   -2.2400 C.3     6  ILE6        0.0252
     29  CG1       25.4890   43.5730   -0.7630 C.3     6  ILE6        0.0019
     30  CG2       26.1230   45.3050   -2.5130 C.3     6  ILE6        0.0019
     31  CD1       26.9100   43.1250   -0.3650 C.3     6  ILE6        0.0001
     32  N         22.7410   37.0850    0.8010 N.3    22  TRP22      -0.1227
     33  CA        22.7220   37.3140    2.2330 C.3    22  TRP22       0.1737
     34  C         21.3920   36.8120    2.7520 C.2    22  TRP22       0.2596
     35  O         20.3430   37.1350    2.2220 O.2    22  TRP22      -0.2718
     36  CB        22.9410   38.7950    2.5400 C.3    22  TRP22       0.0564
     37  CG        24.1650   39.3060    1.7980 C.ar   22  TRP22       0.0003
     38  CD1       24.2430   39.6810    0.4730 C.ar   22  TRP22       0.0946
     39  CD2       25.4740   39.4410    2.3340 C.ar   22  TRP22       0.0152
     40  NE1       25.5300   40.0750    0.1670 N.ar   22  TRP22      -0.2442
     41  CE2       26.3050   39.9410    1.2950 C.ar   22  TRP22       0.0810
     42  CE3       26.0330   39.2140    3.6120 C.ar   22  TRP22       0.0012
     43  CZ2       27.6750   40.2010    1.4890 C.ar   22  TRP22       0.0191
     44  CZ3       27.3890   39.4670    3.7980 C.ar   22  TRP22       0.0001
     45  CH2       28.1940   39.9630    2.7480 C.ar   22  TRP22       0.0015
     46  N         21.4440   36.0160    3.8030 N.am   23  SER23      -0.1938
     47  CA        20.2440   35.3640    4.3230 C.3    23  SER23       0.2055
     48  C         20.1360   35.6730    5.8160 C.2    23  SER23       0.2643
     49  O         21.1550   35.7190    6.5050 O.2    23  SER23      -0.2714
     50  CB        20.3460   33.8510    4.0800 C.3    23  SER23       0.2130
     51  OG        19.0780   33.2410    3.9210 O.3    23  SER23      -0.2179
     52  N         18.9090   35.8910    6.2900 N.am   24  PHE24      -0.1973
     53  CA        18.6370   36.1130    7.6970 C.3    24  PHE24       0.1639
     54  C         17.4440   35.2510    8.0980 C.2    24  PHE24       0.2290
     55  O         16.3800   35.3420    7.4940 O.2    24  PHE24      -0.2864
     56  CB        18.3570   37.5830    8.0030 C.3    24  PHE24       0.0560
     57  CG        17.8470   37.8220    9.3980 C.ar   24  PHE24      -0.0200
     58  CD1       18.6220   37.4900   10.5090 C.ar   24  PHE24      -0.0042
     59  CD2       16.5910   38.3850    9.6030 C.ar   24  PHE24      -0.0042
     60  CE1       18.1600   37.6990   11.8020 C.ar   24  PHE24      -0.0003
     61  CE2       16.1030   38.5880   10.9100 C.ar   24  PHE24      -0.0003
     62  CZ        16.8980   38.2420   12.0050 C.ar   24  PHE24      -0.0000
     63  N         22.5070   34.5130   10.2810 N.3    31  ILE31      -0.1245
     64  CA        22.8670   35.2620    9.0730 C.3    31  ILE31       0.1561
     65  C         24.0330   34.5850    8.3510 C.2    31  ILE31       0.2260
     66  O         25.1000   34.3740    8.9290 O.2    31  ILE31      -0.2867
     67  CB        23.2350   36.7290    9.3700 C.3    31  ILE31       0.0252
     68  CG1       22.0490   37.4530   10.0080 C.3    31  ILE31       0.0019
     69  CG2       23.6760   37.4580    8.0810 C.3    31  ILE31       0.0019
     70  CD1       22.3920   38.8170   10.5220 C.3    31  ILE31       0.0001
     71  N         27.3180   37.9070   15.0960 N.3    44  TYR44      -0.1241
     72  CA        26.9430   39.3110   14.9450 C.3    44  TYR44       0.1605
     73  C         26.1100   39.8780   16.0980 C.2    44  TYR44       0.2264
     74  O         25.5690   39.1260   16.9140 O.2    44  TYR44      -0.2867
     75  CB        26.1330   39.4990   13.6370 C.3    44  TYR44       0.0534
     76  CG        24.6980   39.0090   13.7450 C.ar   44  TYR44      -0.0201
     77  CD1       23.6620   39.8890   14.0630 C.ar   44  TYR44      -0.0009
     78  CD2       24.3880   37.6600   13.5640 C.ar   44  TYR44      -0.0009
     79  CE1       22.3450   39.4480   14.1770 C.ar   44  TYR44       0.0417
     80  CE2       23.0740   37.2060   13.6810 C.ar   44  TYR44       0.0417
     81  CZ        22.0600   38.1060   13.9770 C.ar   44  TYR44       0.1957
     82  OH        20.7630   37.6690   14.0740 O.3    44  TYR44      -0.2866
     83  N         23.1210   43.3020   16.4590 N.3    46  PHE46      -0.1241
     84  CA        22.3210   44.2880   15.7240 C.3    46  PHE46       0.1605
     85  C         21.3880   44.9280   16.7080 C.2    46  PHE46       0.2264
     86  O         20.4190   44.3000   17.1840 O.2    46  PHE46      -0.2867
     87  CB        21.5510   43.6310   14.5500 C.3    46  PHE46       0.0534
     88  CG        20.6860   44.5820   13.7620 C.ar   46  PHE46      -0.0203
     89  CD1       21.2090   45.7460   13.2180 C.ar   46  PHE46      -0.0042
     90  CD2       19.3470   44.2870   13.5320 C.ar   46  PHE46      -0.0042
     91  CE1       20.4100   46.6170   12.4840 C.ar   46  PHE46      -0.0003
     92  CE2       18.5330   45.1560   12.7880 C.ar   46  PHE46      -0.0003
     93  CZ        19.0650   46.3250   12.2750 C.ar   46  PHE46      -0.0000
     94  N         24.7160   47.3770   13.0870 N.3    51  PHE51      -0.1241
     95  CA        25.0860   46.0110   12.7790 C.3    51  PHE51       0.1605
     96  C         26.6040   45.8580   12.7980 C.2    51  PHE51       0.2264
     97  O         27.3200   46.6690   12.2130 O.2    51  PHE51      -0.2867
     98  CB        24.6070   45.6190   11.3640 C.3    51  PHE51       0.0534
     99  CG        24.9820   44.2140   10.9700 C.ar   51  PHE51      -0.0203
    100  CD1       24.1260   43.1510   11.2590 C.ar   51  PHE51      -0.0042
    101  CD2       26.1770   43.9590   10.3190 C.ar   51  PHE51      -0.0042
    102  CE1       24.4630   41.8360   10.9120 C.ar   51  PHE51      -0.0003
    103  CE2       26.5340   42.6340    9.9410 C.ar   51  PHE51      -0.0003
    104  CZ        25.6790   41.5830   10.2600 C.ar   51  PHE51      -0.0000
    105  N         32.0160   37.1210    9.6750 N.3    55  PHE55      -0.1241
    106  CA        31.4020   36.1070    8.8030 C.3    55  PHE55       0.1605
    107  C         32.2100   34.7970    8.6130 C.2    55  PHE55       0.2264
    108  O         31.7370   33.8530    7.9490 O.2    55  PHE55      -0.2867
    109  CB        31.0380   36.7280    7.4500 C.3    55  PHE55       0.0534
    110  CG        29.7330   37.4740    7.4560 C.ar   55  PHE55      -0.0203
    111  CD1       28.5910   36.8920    6.9310 C.ar   55  PHE55      -0.0042
    112  CD2       29.6500   38.7620    7.9830 C.ar   55  PHE55      -0.0042
    113  CE1       27.3700   37.5700    6.9300 C.ar   55  PHE55      -0.0003
    114  CE2       28.4610   39.4520    7.9770 C.ar   55  PHE55      -0.0003
    115  CZ        27.3050   38.8630    7.4490 C.ar   55  PHE55      -0.0000
    116  N         31.8250   45.4940    7.6810 N.3    79  LEU79      -0.1245
    117  CA        30.7520   44.8270    8.4000 C.3    79  LEU79       0.1561
    118  C         31.2370   44.4360    9.7800 C.2    79  LEU79       0.2260
    119  O         30.4800   44.5240   10.7600 O.2    79  LEU79      -0.2867
    120  CB        30.2260   43.6080    7.6480 C.3    79  LEU79       0.0270
    121  CG        29.5450   43.9020    6.3210 C.3    79  LEU79       0.0019
    122  CD1       29.1110   42.6340    5.5980 C.3    79  LEU79       0.0001
    123  CD2       28.3590   44.9130    6.5180 C.3    79  LEU79       0.0001
    124  N         22.1470   50.1790    9.5590 N.3    85  LEU85      -0.1245
    125  CA        21.2010   49.6660    8.5990 C.3    85  LEU85       0.1561
    126  C         19.9440   50.5210    8.6160 C.2    85  LEU85       0.2260
    127  O         19.4220   50.8280    9.7040 O.2    85  LEU85      -0.2867
    128  CB        20.8790   48.1810    8.8700 C.3    85  LEU85       0.0270
    129  CG        22.0420   47.1670    8.9400 C.3    85  LEU85       0.0019
    130  CD1       21.5010   45.7440    9.1070 C.3    85  LEU85       0.0001
    131  CD2       22.9780   47.2460    7.7350 C.3    85  LEU85       0.0001
    132  N         16.2110   50.4620    7.1330 N.3    87  GLY87      -0.1225
    133  CA        15.1120   49.8440    6.4130 C.3    87  GLY87       0.1811
    134  C         13.9850   50.8530    6.2340 C.2    87  GLY87       0.2280
    135  O         14.0970   51.9890    6.6750 O.2    87  GLY87      -0.2866
    136  N         11.4400   45.9200    1.4020 N.3    92  ASP92      -0.1239
    137  CA        12.4600   45.3010    2.2030 C.3    92  ASP92       0.1674
    138  C         13.8670   45.7340    1.8660 C.2    92  ASP92       0.2266
    139  O         14.7940   45.1390    2.3750 O.2    92  ASP92      -0.2867
    140  CB        12.3810   43.7870    2.0940 C.3    92  ASP92       0.1410
    141  CG        11.3050   43.2190    2.9630 C.2    92  ASP92       0.3668
    142  OD1       11.3270   43.4770    4.1830 O.co2  92  ASP92      -0.2456
    143  OD2       10.4530   42.4950    2.4410 O.co2  92  ASP92      -0.2456
    144  N         17.2670   47.8110    2.2460 N.3    94  ILE94      -0.1245
    145  CA        18.0080   48.2490    3.4420 C.3    94  ILE94       0.1561
    146  C         19.2540   48.9850    2.9510 C.2    94  ILE94       0.2260
    147  O         20.0290   48.4250    2.1540 O.2    94  ILE94      -0.2867
    148  CB        18.4260   47.0610    4.3380 C.3    94  ILE94       0.0252
    149  CG1       17.2140   46.2100    4.7440 C.3    94  ILE94       0.0019
    150  CG2       19.2600   47.5050    5.5810 C.3    94  ILE94       0.0019
    151  CD1       17.5620   44.9350    5.4040 C.3    94  ILE94       0.0001
    152  N         22.9380   50.4420    3.6860 N.3    96  ILE96      -0.1245
    153  CA        24.0450   50.2470    4.6170 C.3    96  ILE96       0.1561
    154  C         24.8800   51.5290    4.6280 C.2    96  ILE96       0.2260
    155  O         25.4490   51.9240    3.6020 O.2    96  ILE96      -0.2867
    156  CB        24.8720   49.0210    4.2020 C.3    96  ILE96       0.0252
    157  CG1       23.9450   47.7710    4.1960 C.3    96  ILE96       0.0019
    158  CG2       26.1120   48.8770    5.0890 C.3    96  ILE96       0.0019
    159  CD1       24.5690   46.4990    3.6830 C.3    96  ILE96       0.0001
    160  N         26.3000   50.7890    0.4680 N.3   104  LEU104     -0.1245
    161  CA        25.6600   49.8610   -0.4130 C.3   104  LEU104      0.1561
    162  C         24.1770   49.7590   -0.0540 C.2   104  LEU104      0.2260
    163  O         23.7270   50.3090    0.9610 O.2   104  LEU104     -0.2867
    164  CB        26.3630   48.4940   -0.3350 C.3   104  LEU104      0.0270
    165  CG        26.2020   47.7920    1.0040 C.3   104  LEU104      0.0019
    166  CD1       25.0240   46.8870    0.9150 C.3   104  LEU104      0.0001
    167  CD2       27.4530   46.9810    1.3490 C.3   104  LEU104      0.0001
    168  N         20.9450   46.7660    0.1430 N.3   106  LEU106     -0.1245
    169  CA        20.4600   45.4090    0.0670 C.3   106  LEU106      0.1561
    170  C         19.0800   45.3720   -0.5920 C.2   106  LEU106      0.2260
    171  O         18.1490   46.0190   -0.1210 O.2   106  LEU106     -0.2867
    172  CB        20.3630   44.7620    1.4620 C.3   106  LEU106      0.0270
    173  CG        21.6760   44.5100    2.2010 C.3   106  LEU106      0.0019
    174  CD1       21.4090   44.0810    3.6610 C.3   106  LEU106      0.0001
    175  CD2       22.4960   43.4550    1.4420 C.3   106  LEU106      0.0001
@<TRIPOS>BOND
     1    27    26    2
     2    26    25    1
     3    24    25    1
     4    25    28    1
     5    30    28    1
     6    28    29    1
     7    12    13    2
     8    12    11    1
     9    29    31    1
    10   170   171    2
    11   170   169    1
    12   161   164    1
    13   161   162    1
    14   161   160    1
    15   164   165    1
    16    11    10    1
    17    11    14    1
    18   162   163    2
    19   169   168    1
    20   169   172    1
    21    40    38   ar
    22    40    41   ar
    23    38    37   ar
    24    14    15    1
    25    32    33    1
    26   166   165    1
    27   165   167    1
    28    41    43   ar
    29    41    39   ar
    30    16    15   ar
    31    16    18   ar
    32   136   137    1
    33   175   173    1
    34   172   173    1
    35    43    45   ar
    36    15    17   ar
    37    37    39   ar
    38    37    36    1
    39   138   137    1
    40   138   139    2
    41   140   137    1
    42   140   141    1
    43   147   146    2
    44   173   174    1
    45    35    34    2
    46    33    36    1
    47    33    34    1
    48   144   145    1
    49    39    42   ar
    50   143   141   ar
    51    18    19   ar
    52    45    44   ar
    53    34    46   am
    54    17    19   ar
    55    17    20   ar
    56   146   145    1
    57   141   142   ar
    58     3     2    1
    59     3     4    2
    60    19    21   ar
    61   145   148    1
    62   155   154    2
    63    42    44   ar
    64   159   157    1
    65   152   153    1
    66    20    22   ar
    67    46    47    1
    68    51    50    1
    69     2     5    1
    70     2     1    1
    71    50    47    1
    72   157   156    1
    73   156   153    1
    74   156   158    1
    75    47    48    1
    76   148   149    1
    77   148   150    1
    78     5     6    1
    79     6     7    1
    80   153   154    1
    81    21    23   ar
    82   149   151    1
    83    22    23   ar
    84     7     8    1
    85     8     9    1
    86   122   121    1
    87    48    52   am
    88    48    49    2
    89   134   133    1
    90   134   135    2
    91    52    53    1
    92   121   123    1
    93   121   120    1
    94   133   132    1
    95   113   111   ar
    96   113   115   ar
    97   111   110   ar
    98   115   114   ar
    99   109   110    1
   100   109   106    1
   101   110   112   ar
   102    55    54    2
   103   120   117    1
   104   116   117    1
   105    53    56    1
   106    53    54    1
   107   131   129    1
   108   108   107    2
   109   114   112   ar
   110    56    57    1
   111    69    67    1
   112    65    66    2
   113    65    64    1
   114   117   118    1
   115   125   126    1
   116   125   128    1
   117   125   124    1
   118   107   106    1
   119   126   127    2
   120   106   105    1
   121   128   129    1
   122   129   130    1
   123    64    67    1
   124    64    63    1
   125    67    68    1
   126    57    59   ar
   127    57    58   ar
   128    59    61   ar
   129   118   119    2
   130   103   104   ar
   131   103   101   ar
   132    68    70    1
   133   104   102   ar
   134   101    99   ar
   135    58    60   ar
   136    61    62   ar
   137   102   100   ar
   138    99   100   ar
   139    99    98    1
   140    98    95    1
   141    60    62   ar
   142    97    96    2
   143    93    91   ar
   144    93    92   ar
   145    91    89   ar
   146    95    96    1
   147    95    94    1
   148    92    90   ar
   149    89    88   ar
   150    90    88   ar
   151    78    80   ar
   152    78    76   ar
   153    75    76    1
   154    75    72    1
   155    80    81   ar
   156    76    77   ar
   157    88    87    1
   158    81    82    1
   159    81    79   ar
   160    77    79   ar
   161    87    84    1
   162    72    71    1
   163    72    73    1
   164    84    83    1
   165    84    85    1
   166    73    74    2
   167    85    86    2
