@<TRIPOS>MOLECULE
tmp/1ya4B01.pdb
 215 204 0 0 0
SMALL
GASTEIGER

@<TRIPOS>ATOM
      1  N         14.2720   23.6680   88.3140 N.3    70  ASP70      -0.1239
      2  CA        15.2680   24.4920   88.9760 C.3    70  ASP70       0.1674
      3  C         16.1720   23.5460   89.7540 C.2    70  ASP70       0.2266
      4  O         15.8190   23.1050   90.8440 O.2    70  ASP70      -0.2867
      5  CB        14.5630   25.4560   89.9370 C.3    70  ASP70       0.1410
      6  CG        15.4680   26.5700   90.4250 C.2    70  ASP70       0.3668
      7  OD1       16.6650   26.2890   90.6670 O.co2  70  ASP70      -0.2456
      8  OD2       14.9770   27.7210   90.5740 O.co2  70  ASP70      -0.2456
      9  N         16.4160   24.5340   93.5220 N.3    73  ALA73      -0.1245
     10  CA        15.1350   24.3040   94.1760 C.3    73  ALA73       0.1562
     11  C         14.8120   22.8220   94.1780 C.2    73  ALA73       0.2260
     12  O         14.2830   22.2870   95.1540 O.2    73  ALA73      -0.2867
     13  CB        14.0420   25.0730   93.4510 C.3    73  ALA73       0.0290
     14  N         17.1960   20.8640   96.5830 N.3    76  LEU76      -0.1231
     15  CA        16.8880   21.2740   97.9490 C.3    76  LEU76       0.1693
     16  C         15.6340   20.6020   98.4870 C.2    76  LEU76       0.2591
     17  O         15.6210   20.1290   99.6170 O.2    76  LEU76      -0.2718
     18  CB        16.7270   22.7920   98.0530 C.3    76  LEU76       0.0284
     19  CG        16.2030   23.2530   99.4260 C.3    76  LEU76       0.0019
     20  CD1       17.1030   22.7410  100.5330 C.3    76  LEU76       0.0001
     21  CD2       16.1190   24.7720   99.4670 C.3    76  LEU76       0.0001
     22  N         14.5750   20.5720   97.6870 N.am   77  LEU77      -0.1980
     23  CA        13.3390   19.9400   98.1200 C.3    77  LEU77       0.1596
     24  C         13.5970   18.4550   98.3250 C.2    77  LEU77       0.2287
     25  O         13.1140   17.8610   99.2920 O.2    77  LEU77      -0.2864
     26  CB        12.2480   20.1290   97.0720 C.3    77  LEU77       0.0297
     27  CG        10.8710   19.5580   97.4380 C.3    77  LEU77       0.0022
     28  CD1       10.3540   20.2280   98.7010 C.3    77  LEU77       0.0001
     29  CD2        9.8900   19.7760   96.2830 C.3    77  LEU77       0.0001
     30  N         12.7750   16.3740  101.9880 N.3    81  PHE81      -0.1241
     31  CA        11.6770   15.4000  102.0080 C.3    81  PHE81       0.1605
     32  C         12.1110   13.9330  101.9410 C.2    81  PHE81       0.2264
     33  O         11.3550   13.0330  102.3410 O.2    81  PHE81      -0.2867
     34  CB        10.7350   15.6560  100.8320 C.3    81  PHE81       0.0534
     35  CG         9.7070   16.7110  101.0820 C.ar   81  PHE81      -0.0203
     36  CD1        9.8960   17.6790  102.0560 C.ar   81  PHE81      -0.0042
     37  CD2        8.5400   16.7400  100.3320 C.ar   81  PHE81      -0.0042
     38  CE1        8.9300   18.6600  102.2830 C.ar   81  PHE81      -0.0003
     39  CE2        7.5720   17.7190  100.5550 C.ar   81  PHE81      -0.0003
     40  CZ         7.7710   18.6770  101.5350 C.ar   81  PHE81      -0.0000
     41  N          5.1440   15.8170   95.2140 N.3   121  GLY121     -0.1210
     42  CA         4.7170   17.1950   95.1010 C.3   121  GLY121      0.1956
     43  C          5.8820   18.0880   94.7210 C.2   121  GLY121      0.2612
     44  O          6.9770   17.6160   94.4240 O.2   121  GLY121     -0.2717
     45  N          5.6400   19.3900   94.7350 N.am  122  GLY122     -0.1942
     46  CA         6.6840   20.3280   94.3980 C.3   122  GLY122      0.2014
     47  C          6.1130   21.5020   93.6350 C.2   122  GLY122      0.2639
     48  O          6.8180   22.0980   92.8240 O.2   122  GLY122     -0.2714
     49  N          4.8450   21.8320   93.8880 N.am  123  GLY123     -0.1954
     50  CA         4.2010   22.9470   93.2040 C.3   123  GLY123      0.1869
     51  C          4.1520   22.8100   91.6880 C.2   123  GLY123      0.2309
     52  O          4.0530   23.8060   90.9790 O.2   123  GLY123     -0.2863
     53  N          8.8240   21.6000   90.5980 N.3   126  VAL126     -0.1245
     54  CA        10.0070   20.8490   91.0070 C.3   126  VAL126      0.1561
     55  C          9.6070   19.5490   91.6790 C.2   126  VAL126      0.2260
     56  O          8.4400   19.3460   91.9840 O.2   126  VAL126     -0.2867
     57  CB        10.8740   21.6620   91.9990 C.3   126  VAL126      0.0252
     58  CG1       11.3310   22.9540   91.3460 C.3   126  VAL126      0.0019
     59  CG2       10.0870   21.9410   93.2730 C.3   126  VAL126      0.0019
     60  N          0.9630   17.4790   98.6870 N.3   201  SER201     -0.1202
     61  CA         1.0390   18.8020   98.0590 C.3   201  SER201      0.2020
     62  C          0.5180   18.7620   96.6050 C.2   201  SER201      0.2618
     63  O         -0.5720   18.2430   96.3510 O.2   201  SER201     -0.2717
     64  CB         2.4840   19.3230   98.1020 C.3   201  SER201      0.2103
     65  OG         2.5260   20.7380   97.9970 O.3   201  SER201     -0.2182
     66  N          1.2810   19.3160   95.6630 N.am  202  ALA202     -0.1979
     67  CA         0.8790   19.3180   94.2540 C.3   202  ALA202      0.1597
     68  C          0.4610   17.9050   93.8410 C.2   202  ALA202      0.2287
     69  O         -0.3900   17.7270   92.9570 O.2   202  ALA202     -0.2864
     70  CB         2.0370   19.8010   93.3720 C.3   202  ALA202      0.0319
     71  N         -7.1690   24.0380   96.0890 N.3   232  THR232     -0.1218
     72  CA        -6.0170   24.8180   96.5280 C.3   232  THR232      0.1862
     73  C         -5.6760   25.7840   95.3880 C.2   232  THR232      0.2287
     74  O         -4.7500   25.5500   94.6070 O.2   232  THR232     -0.2866
     75  CB        -4.8200   23.8960   96.8080 C.3   232  THR232      0.1770
     76  OG1       -5.1920   22.9470   97.8140 O.3   232  THR232     -0.2211
     77  CG2       -3.6180   24.6930   97.2880 C.3   232  THR232      0.0375
     78  N         -3.9360   28.4030   94.2930 N.3   234  VAL234     -0.1231
     79  CA        -2.5850   28.5270   93.7440 C.3   234  VAL234      0.1692
     80  C         -2.1870   27.5050   92.6660 C.2   234  VAL234      0.2591
     81  O         -1.3840   27.8060   91.7810 O.2   234  VAL234     -0.2718
     82  CB        -1.5350   28.4810   94.8810 C.3   234  VAL234      0.0266
     83  CG1       -1.6480   27.1650   95.6380 C.3   234  VAL234      0.0020
     84  CG2       -0.1270   28.7010   94.3150 C.3   234  VAL234      0.0020
     85  N         -2.7500   26.3060   92.7240 N.am  235  LEU235     -0.1980
     86  CA        -2.4230   25.2770   91.7400 C.3   235  LEU235      0.1596
     87  C         -3.3490   25.1710   90.4960 C.2   235  LEU235      0.2287
     88  O         -2.9980   24.4970   89.5150 O.2   235  LEU235     -0.2864
     89  CB        -2.3600   23.9230   92.4430 C.3   235  LEU235      0.0297
     90  CG        -1.2360   23.8170   93.4600 C.3   235  LEU235      0.0022
     91  CD1       -1.4290   22.5790   94.2980 C.3   235  LEU235      0.0001
     92  CD2        0.0910   23.7850   92.7340 C.3   235  LEU235      0.0001
     93  N          9.5950   32.0240   89.2150 N.3   283  PHE283     -0.1227
     94  CA         8.4910   31.3070   89.8210 C.3   283  PHE283      0.1736
     95  C          8.8380   30.8990   91.2530 C.2   283  PHE283      0.2595
     96  O          9.9370   31.1590   91.7460 O.2   283  PHE283     -0.2718
     97  CB         8.1740   30.0520   89.0200 C.3   283  PHE283      0.0547
     98  CG         7.6270   30.3220   87.6540 C.ar  283  PHE283     -0.0202
     99  CD1        8.2780   29.8440   86.5320 C.ar  283  PHE283     -0.0042
    100  CD2        6.4430   31.0140   87.4870 C.ar  283  PHE283     -0.0042
    101  CE1        7.7590   30.0450   85.2710 C.ar  283  PHE283     -0.0003
    102  CE2        5.9190   31.2180   86.2180 C.ar  283  PHE283     -0.0003
    103  CZ         6.5830   30.7290   85.1120 C.ar  283  PHE283     -0.0000
    104  N          7.8850   30.2580   91.9150 N.am  284  LEU284     -0.1966
    105  CA         8.0820   29.7800   93.2710 C.3   284  LEU284      0.1728
    106  C          8.5820   30.8150   94.2550 C.2   284  LEU284      0.2616
    107  O          8.9530   30.4590   95.3690 O.2   284  LEU284     -0.2715
    108  CB         9.0510   28.6070   93.2600 C.3   284  LEU284      0.0311
    109  CG         8.6260   27.4360   92.3730 C.3   284  LEU284      0.0022
    110  CD1        9.7180   26.3890   92.3420 C.3   284  LEU284      0.0001
    111  CD2        7.3400   26.8340   92.8950 C.3   284  LEU284      0.0001
    112  N          8.6020   32.0840   93.8560 N.am  285  SER285     -0.1950
    113  CA         9.0640   33.1540   94.7470 C.3   285  SER285      0.1924
    114  C          8.0340   34.2650   94.8870 C.2   285  SER285      0.2314
    115  O          7.3440   34.6100   93.9290 O.2   285  SER285     -0.2863
    116  CB        10.3920   33.7230   94.2530 C.3   285  SER285      0.2116
    117  OG        11.4010   32.7240   94.3090 O.3   285  SER285     -0.2180
    118  N          2.8030   32.7850   90.3970 N.3   297  PRO297     -0.2102
    119  CA         3.6680   31.9280   91.2140 C.3   297  PRO297      0.1504
    120  C          4.0780   30.6170   90.5530 C.2   297  PRO297      0.2575
    121  O          5.0960   30.0310   90.9200 O.2   297  PRO297     -0.2718
    122  CB         2.8380   31.7110   92.4720 C.3   297  PRO297      0.0282
    123  CG         1.4570   31.6270   91.9220 C.3   297  PRO297      0.0208
    124  CD         1.4240   32.7720   90.9180 C.3   297  PRO297      0.0893
    125  N          3.2900   30.1570   89.5830 N.am  298  LEU298     -0.1980
    126  CA         3.5920   28.9080   88.8750 C.3   298  LEU298      0.1596
    127  C          2.6420   28.6110   87.7150 C.2   298  LEU298      0.2287
    128  O          1.6500   29.3160   87.5100 O.2   298  LEU298     -0.2864
    129  CB         3.5580   27.7240   89.8450 C.3   298  LEU298      0.0297
    130  CG         2.3170   27.5030   90.7230 C.3   298  LEU298      0.0022
    131  CD1        1.0240   27.5250   89.9080 C.3   298  LEU298      0.0001
    132  CD2        2.4730   26.1650   91.4300 C.3   298  LEU298      0.0001
    133  N          8.5210   25.6980  106.1490 N.3   338  LEU338     -0.1231
    134  CA         8.9630   25.2400  104.8370 C.3   338  LEU338      0.1693
    135  C          8.6260   26.1190  103.6460 C.2   338  LEU338      0.2591
    136  O          9.5310   26.5450  102.9360 O.2   338  LEU338     -0.2718
    137  CB         8.4580   23.8210  104.5910 C.3   338  LEU338      0.0284
    138  CG         9.0840   23.0110  103.4550 C.3   338  LEU338      0.0019
    139  CD1       10.5960   22.9820  103.5830 C.3   338  LEU338      0.0001
    140  CD2        8.5200   21.6100  103.5010 C.3   338  LEU338      0.0001
    141  N          7.3480   26.3970  103.4110 N.am  339  ILE339     -0.1980
    142  CA         6.9670   27.2280  102.2640 C.3   339  ILE339      0.1595
    143  C          7.3570   28.7090  102.3970 C.2   339  ILE339      0.2287
    144  O          8.0400   29.2630  101.5210 O.2   339  ILE339     -0.2864
    145  CB         5.4490   27.1570  101.9930 C.3   339  ILE339      0.0276
    146  CG1        5.0230   25.7110  101.7620 C.3   339  ILE339      0.0022
    147  CG2        5.0980   28.0060  100.7840 C.3   339  ILE339      0.0022
    148  CD1        3.5330   25.5090  101.8210 C.3   339  ILE339      0.0001
    149  N          9.4770   29.8770  103.9210 N.3   341  MET341     -0.1230
    150  CA        10.9250   29.8470  103.8620 C.3   341  MET341      0.1702
    151  C         11.3660   29.8620  102.4030 C.2   341  MET341      0.2592
    152  O         12.0260   30.8020  101.9530 O.2   341  MET341     -0.2718
    153  CB        11.4400   28.5880  104.5590 C.3   341  MET341      0.0401
    154  CG        12.9520   28.5330  104.7270 C.3   341  MET341      0.0596
    155  SD        13.8380   28.1030  103.2260 S.3   341  MET341     -0.1393
    156  CE        13.9760   26.3050  103.4360 C.3   341  MET341      0.0692
    157  N         10.9700   28.8230  101.6730 N.am  342  LEU342     -0.1966
    158  CA        11.3100   28.6550  100.2630 C.3   342  LEU342      0.1728
    159  C         10.8570   29.8010   99.3780 C.2   342  LEU342      0.2616
    160  O         11.5680   30.1920   98.4520 O.2   342  LEU342     -0.2715
    161  CB        10.7060   27.3600   99.7380 C.3   342  LEU342      0.0311
    162  CG        11.1350   26.0900  100.4620 C.3   342  LEU342      0.0022
    163  CD1       10.3710   24.9110   99.8950 C.3   342  LEU342      0.0001
    164  CD2       12.6300   25.8930  100.3120 C.3   342  LEU342      0.0001
    165  N          9.6700   30.3280   99.6540 N.am  343  MET343     -0.1963
    166  CA         9.1410   31.4310   98.8680 C.3   343  MET343      0.1736
    167  C          9.7790   32.7410   99.2620 C.2   343  MET343      0.2617
    168  O          9.5220   33.7780   98.6490 O.2   343  MET343     -0.2715
    169  CB         7.6460   31.5460   99.0580 C.3   343  MET343      0.0427
    170  CG         6.8700   30.5020   98.3350 C.3   343  MET343      0.0599
    171  SD         5.4060   31.3040   97.7720 S.3   343  MET343     -0.1393
    172  CE         6.0700   32.3200   96.4460 C.3   343  MET343      0.0692
    173  N         10.5950   32.6840  100.3060 N.am  344  SER344     -0.1950
    174  CA        11.2980   33.8500  100.8120 C.3   344  SER344      0.1924
    175  C         10.3610   34.8860  101.4130 C.2   344  SER344      0.2314
    176  O         10.2220   35.9870  100.8870 O.2   344  SER344     -0.2863
    177  CB        12.1270   34.4780   99.6920 C.3   344  SER344      0.2116
    178  OG        13.0940   33.5580   99.2180 O.3   344  SER344     -0.2180
    179  N         -1.3250   33.3860   96.0190 N.3   367  LEU367     -0.1245
    180  CA        -1.4320   32.2210   96.8770 C.3   367  LEU367      0.1561
    181  C         -2.8070   31.9860   97.5060 C.2   367  LEU367      0.2260
    182  O         -3.2680   30.8450   97.5870 O.2   367  LEU367     -0.2867
    183  CB        -0.3810   32.3210   97.9780 C.3   367  LEU367      0.0270
    184  CG         1.0250   31.8020   97.6770 C.3   367  LEU367      0.0019
    185  CD1        2.0690   32.8150   98.0900 C.3   367  LEU367      0.0001
    186  CD2        1.2250   30.4960   98.4260 C.3   367  LEU367      0.0001
    187  N         -5.2810   28.0120  101.9320 N.3   404  MET404     -0.1230
    188  CA        -4.6190   27.1330  100.9700 C.3   404  MET404      0.1702
    189  C         -4.8710   25.6470  101.1210 C.2   404  MET404      0.2592
    190  O         -4.9500   24.9330  100.1270 O.2   404  MET404     -0.2718
    191  CB        -3.1130   27.3370  100.9870 C.3   404  MET404      0.0401
    192  CG        -2.6600   28.6760  100.4830 C.3   404  MET404      0.0596
    193  SD        -0.9910   28.5460   99.8290 S.3   404  MET404     -0.1393
    194  CE        -0.0570   28.2380  101.2900 C.3   404  MET404      0.0692
    195  N         -4.9710   25.1600  102.3480 N.am  405  PHE405     -0.1976
    196  CA        -5.1920   23.7360  102.5250 C.3   405  PHE405      0.1639
    197  C         -6.3180   23.4370  103.4850 C.2   405  PHE405      0.2290
    198  O         -7.1380   22.5470  103.2320 O.2   405  PHE405     -0.2864
    199  CB        -3.9230   23.0550  103.0290 C.3   405  PHE405      0.0560
    200  CG        -2.6800   23.4620  102.2990 C.ar  405  PHE405     -0.0200
    201  CD1       -2.0690   24.6770  102.5740 C.ar  405  PHE405     -0.0042
    202  CD2       -2.1010   22.6190  101.3590 C.ar  405  PHE405     -0.0042
    203  CE1       -0.8920   25.0520  101.9290 C.ar  405  PHE405     -0.0003
    204  CE2       -0.9290   22.9850  100.7100 C.ar  405  PHE405     -0.0003
    205  CZ        -0.3200   24.2090  100.9980 C.ar  405  PHE405     -0.0000
    206  N          4.3810   21.7550  106.5740 N.3   447  HIS447     -0.1241
    207  CA         3.9830   21.1550  105.2990 C.3   447  HIS447      0.1621
    208  C          4.8760   19.9410  105.0250 C.2   447  HIS447      0.2264
    209  O          6.0910   19.9980  105.2010 O.2   447  HIS447     -0.2867
    210  CB         4.1170   22.2080  104.1750 C.3   447  HIS447      0.0745
    211  CG         3.4700   21.8270  102.8700 C.ar  447  HIS447      0.0817
    212  ND1        2.1540   21.4260  102.7700 N.ar  447  HIS447     -0.2268
    213  CD2        3.9480   21.8500  101.6020 C.ar  447  HIS447      0.1154
    214  CE1        1.8510   21.2190  101.5010 C.ar  447  HIS447      0.1986
    215  NE2        2.9220   21.4700  100.7710 N.ar  447  HIS447     -0.2212
@<TRIPOS>BOND
     1   103   101   ar
     2   103   102   ar
     3   101    99   ar
     4   102   100   ar
     5    99    98   ar
     6   100    98   ar
     7   128   127    2
     8    98    97    1
     9   127   126    1
    10     1     2    1
    11   126   125    1
    12   126   129    1
    13     2     3    1
    14     2     5    1
    15    97    94    1
    16    93    94    1
    17    88    87    2
    18   125   120   am
    19     3     4    2
    20    94    95    1
    21   129   130    1
    22   131   130    1
    23     5     6    1
    24   118   124    1
    25   118   119    1
    26     6     8   ar
    27     6     7   ar
    28    87    86    1
    29   120   121    2
    30   120   119    1
    31    53    54    1
    32   130   132    1
    33   124   123    1
    34    52    51    2
    35    54    55    1
    36    54    57    1
    37   119   122    1
    38    95    96    2
    39    95   104   am
    40    58    57    1
    41    55    56    2
    42    51    50    1
    43    86    89    1
    44    86    85    1
    45    81    80    2
    46   104   105    1
    47   123   122    1
    48    57    59    1
    49   110   109    1
    50   109   111    1
    51   109   108    1
    52    89    90    1
    53    80    85   am
    54    80    79    1
    55    92    90    1
    56    48    47    2
    57    69    68    2
    58    50    49    1
    59   108   105    1
    60   105   106    1
    61    70    67    1
    62    13    10    1
    63    90    91    1
    64     9    10    1
    65    47    49   am
    66    47    46    1
    67    79    78    1
    68    79    82    1
    69    68    67    1
    70   112   106   am
    71   112   113    1
    72   115   114    2
    73    10    11    1
    74    11    12    2
    75   116   117    1
    76   116   113    1
    77    67    66    1
    78   106   107    2
    79    84    82    1
    80    46    45    1
    81    44    43    2
    82    74    73    2
    83    43    45   am
    84    43    42    1
    85   113   114    1
    86    82    83    1
    87    42    41    1
    88    73    72    1
    89    66    62   am
    90   179   180    1
    91    71    72    1
    92    29    27    1
    93    63    62    2
    94   172   171    1
    95    72    75    1
    96    14    15    1
    97    62    61    1
    98    75    77    1
    99    75    76    1
   100   180   181    1
   101   180   183    1
   102    26    27    1
   103    26    23    1
   104    27    28    1
   105   181   182    2
   106   184   183    1
   107   184   185    1
   108   184   186    1
   109    22    23    1
   110    22    16   am
   111   171   170    1
   112    15    18    1
   113    15    16    1
   114    65    64    1
   115    18    19    1
   116    61    64    1
   117    61    60    1
   118    23    24    1
   119    24    25    2
   120   170   169    1
   121   160   159    2
   122    16    17    2
   123   168   167    2
   124   166   169    1
   125   166   167    1
   126   166   165    1
   127   178   177    1
   128   167   173   am
   129   159   165   am
   130   159   158    1
   131    19    21    1
   132    19    20    1
   133   177   174    1
   134   161   158    1
   135   161   162    1
   136   193   192    1
   137   193   194    1
   138   163   162    1
   139   190   189    2
   140   158   157    1
   141   173   174    1
   142   164   162    1
   143    37    39   ar
   144    37    35   ar
   145   192   191    1
   146    39    40   ar
   147   204   205   ar
   148   204   202   ar
   149   215   214   ar
   150   215   213   ar
   151   147   145    1
   152   174   175    1
   153    34    35    1
   154    34    31    1
   155   176   175    2
   156   188   191    1
   157   188   189    1
   158   188   187    1
   159   205   203   ar
   160    35    36   ar
   161   189   195   am
   162   202   200   ar
   163   214   212   ar
   164   144   143    2
   165    40    38   ar
   166   213   211   ar
   167   157   151   am
   168   146   148    1
   169   146   145    1
   170   203   201   ar
   171    32    31    1
   172    32    33    2
   173   152   151    2
   174    30    31    1
   175   145   142    1
   176    36    38   ar
   177   142   143    1
   178   142   141    1
   179   200   201   ar
   180   200   199    1
   181   195   196    1
   182   151   150    1
   183   196   199    1
   184   196   197    1
   185   212   211   ar
   186   211   210    1
   187   136   135    2
   188   155   156    1
   189   155   154    1
   190   198   197    2
   191   141   135   am
   192   138   140    1
   193   138   139    1
   194   138   137    1
   195   135   134    1
   196   150   149    1
   197   150   153    1
   198   210   207    1
   199   153   154    1
   200   137   134    1
   201   134   133    1
   202   208   209    2
   203   208   207    1
   204   207   206    1
