@<TRIPOS>MOLECULE
tmp/1ya4B02.pdb
 125 120 0 0 0
SMALL
GASTEIGER

@<TRIPOS>ATOM
      1  N          3.6890   26.8690  108.3600 N.3   336  GLY336     -0.1210
      2  CA         4.5520   27.1610  109.4910 C.3   336  GLY336      0.1956
      3  C          5.9940   27.5450  109.2150 C.2   336  GLY336      0.2611
      4  O          6.5430   28.4180  109.8930 O.2   336  GLY336     -0.2717
      5  N          6.6220   26.9120  108.2310 N.am  337  TRP337     -0.1976
      6  CA         8.0170   27.2180  107.9540 C.3   337  TRP337      0.1640
      7  C          8.4530   26.9800  106.5090 C.2   337  TRP337      0.2290
      8  O          8.7260   27.9270  105.7590 O.2   337  TRP337     -0.2864
      9  CB         8.9210   26.3890  108.8870 C.3   337  TRP337      0.0576
     10  CG        10.3800   26.6280  108.6490 C.ar  337  TRP337      0.0006
     11  CD1       11.0750   27.7620  108.9390 C.ar  337  TRP337      0.0946
     12  CD2       11.2860   25.7750  107.9430 C.ar  337  TRP337      0.0152
     13  NE1       12.3520   27.6840  108.4460 N.ar  337  TRP337     -0.2442
     14  CE2       12.5100   26.4730  107.8280 C.ar  337  TRP337      0.0810
     15  CE3       11.1850   24.4950  107.3920 C.ar  337  TRP337      0.0012
     16  CZ2       13.6250   25.9320  107.1810 C.ar  337  TRP337      0.0191
     17  CZ3       12.2990   23.9540  106.7480 C.ar  337  TRP337      0.0001
     18  CH2       13.5010   24.6750  106.6490 C.ar  337  TRP337      0.0015
     19  N          6.9320   29.3720  103.4900 N.3   340  PRO340     -0.2102
     20  CA         7.2700   30.7880  103.6740 C.3   340  PRO340      0.1504
     21  C          8.7790   30.9490  103.5590 C.2   340  PRO340      0.2575
     22  O          9.2930   32.0040  103.1620 O.2   340  PRO340     -0.2718
     23  CB         6.7760   31.0830  105.0820 C.3   340  PRO340      0.0282
     24  CG         5.6850   30.0840  105.2770 C.3   340  PRO340      0.0208
     25  CD         6.2480   28.8430  104.6800 C.3   340  PRO340      0.0893
     26  N          9.4770   29.8770  103.9210 N.am  341  MET341     -0.1980
     27  CA        10.9250   29.8470  103.8620 C.3   341  MET341      0.1605
     28  C         11.3660   29.8620  102.4030 C.2   341  MET341      0.2287
     29  O         12.0260   30.8020  101.9530 O.2   341  MET341     -0.2864
     30  CB        11.4400   28.5880  104.5590 C.3   341  MET341      0.0413
     31  CG        12.9520   28.5330  104.7270 C.3   341  MET341      0.0598
     32  SD        13.8380   28.1030  103.2260 S.3   341  MET341     -0.1393
     33  CE        13.9760   26.3050  103.4360 C.3   341  MET341      0.0692
     34  N          9.7170   34.5350  102.5210 N.3   345  TYR345     -0.1241
     35  CA         8.8160   35.4740  103.1740 C.3   345  TYR345      0.1605
     36  C          9.5740   36.4040  104.1080 C.2   345  TYR345      0.2264
     37  O         10.3670   35.9680  104.9510 O.2   345  TYR345     -0.2867
     38  CB         7.7120   34.7510  103.9430 C.3   345  TYR345      0.0534
     39  CG         6.3930   34.7560  103.2100 C.ar  345  TYR345     -0.0201
     40  CD1        6.2500   34.0940  101.9910 C.ar  345  TYR345     -0.0009
     41  CD2        5.2850   35.4320  103.7280 C.ar  345  TYR345     -0.0009
     42  CE1        5.0340   34.1030  101.3040 C.ar  345  TYR345      0.0417
     43  CE2        4.0620   35.4460  103.0470 C.ar  345  TYR345      0.0417
     44  CZ         3.9490   34.7780  101.8350 C.ar  345  TYR345      0.1957
     45  OH         2.7600   34.7800  101.1490 O.3   345  TYR345     -0.2866
     46  N          9.1420   37.7920  106.7420 N.3   347  LEU347     -0.1231
     47  CA         9.0470   37.6220  108.1800 C.3   347  LEU347      0.1693
     48  C         10.3940   37.2840  108.8340 C.2   347  LEU347      0.2593
     49  O         10.5710   36.1960  109.3740 O.2   347  LEU347     -0.2718
     50  CB         8.0220   36.5290  108.4620 C.3   347  LEU347      0.0284
     51  CG         6.7700   36.6950  107.5960 C.3   347  LEU347      0.0019
     52  CD1        5.9190   35.4470  107.6710 C.3   347  LEU347      0.0001
     53  CD2        5.9940   37.9230  108.0410 C.3   347  LEU347      0.0001
     54  N         11.3390   38.2210  108.7890 N.am  348  SER348     -0.1938
     55  CA        12.6630   38.0130  109.3810 C.3   348  SER348      0.2055
     56  C         12.7300   38.6840  110.7510 C.2   348  SER348      0.2643
     57  O         13.7510   38.6520  111.4420 O.2   348  SER348     -0.2714
     58  CB        13.7410   38.5970  108.4720 C.3   348  SER348      0.2130
     59  OG        13.5500   39.9900  108.2990 O.3   348  SER348     -0.2179
     60  N         11.6140   39.2940  111.1250 N.am  349  GLU349     -0.1963
     61  CA        11.4820   39.9850  112.3970 C.3   349  GLU349      0.1733
     62  C         10.8420   39.0410  113.4020 C.2   349  GLU349      0.2616
     63  O         10.9800   39.2170  114.6090 O.2   349  GLU349     -0.2715
     64  CB        10.5950   41.2140  112.2200 C.3   349  GLU349      0.0429
     65  CG        11.0280   42.1200  111.0790 C.3   349  GLU349      0.1163
     66  CD        12.3780   42.7700  111.3310 C.2   349  GLU349      0.3649
     67  OE1       12.4950   43.5360  112.3130 O.co2 349  GLU349     -0.2457
     68  OE2       13.3220   42.5170  110.5500 O.co2 349  GLU349     -0.2457
     69  N         10.1380   38.0380  112.8930 N.am  350  GLY350     -0.1955
     70  CA         9.4820   37.0950  113.7720 C.3   350  GLY350      0.1869
     71  C          8.3360   37.7580  114.5020 C.2   350  GLY350      0.2309
     72  O          7.9970   37.3800  115.6240 O.2   350  GLY350     -0.2863
     73  N          4.1510   38.8070  117.8410 N.3   390  VAL390     -0.1245
     74  CA         4.6160   37.4560  117.5550 C.3   390  VAL390      0.1561
     75  C          3.4310   36.4950  117.4490 C.2   390  VAL390      0.2260
     76  O          3.5080   35.4880  116.7430 O.2   390  VAL390     -0.2867
     77  CB         5.6180   36.9630  118.6380 C.3   390  VAL390      0.0252
     78  CG1        6.1990   35.6180  118.2460 C.3   390  VAL390      0.0019
     79  CG2        6.7480   37.9670  118.7890 C.3   390  VAL390      0.0019
     80  N          1.7810   37.0350  113.9590 N.3   393  LYS393     -0.1245
     81  CA         2.5170   36.3470  112.9120 C.3   393  LYS393      0.1561
     82  C          2.0620   34.8840  112.8820 C.2   393  LYS393      0.2260
     83  O          1.6680   34.3620  111.8400 O.2   393  LYS393     -0.2867
     84  CB         4.0190   36.4370  113.1920 C.3   393  LYS393      0.0271
     85  CG         4.8930   35.6830  112.2110 C.3   393  LYS393      0.0035
     86  CD         6.3060   35.4930  112.7570 C.3   393  LYS393      0.0206
     87  CE         6.3280   34.6540  114.0390 C.3   393  LYS393      0.1093
     88  NZ         5.7520   33.2860  113.8860 N.3   393  LYS393     -0.1314
     89  N          0.1580   33.2340  109.7920 N.3   397  LEU397     -0.1245
     90  CA         0.5130   32.0000  109.1070 C.3   397  LEU397      0.1561
     91  C         -0.6310   30.9920  109.1150 C.2   397  LEU397      0.2260
     92  O         -0.8010   30.2240  108.1700 O.2   397  LEU397     -0.2867
     93  CB         1.7570   31.3870  109.7430 C.3   397  LEU397      0.0270
     94  CG         2.9920   32.2870  109.7330 C.3   397  LEU397      0.0019
     95  CD1        4.1820   31.4950  110.2200 C.3   397  LEU397      0.0001
     96  CD2        3.2540   32.7930  108.3360 C.3   397  LEU397      0.0001
     97  N         17.3460   24.6060  110.6630 N.3   438  MET438     -0.1245
     98  CA        16.8020   25.9280  110.4360 C.3   438  MET438      0.1570
     99  C         15.3260   26.0190  110.7910 C.2   438  MET438      0.2261
    100  O         14.7850   27.1230  110.9230 O.2   438  MET438     -0.2867
    101  CB        17.0400   26.3290  108.9820 C.3   438  MET438      0.0387
    102  CG        18.5220   26.4550  108.6240 C.3   438  MET438      0.0595
    103  SD        18.8460   26.6200  106.8350 S.3   438  MET438     -0.1393
    104  CE        19.3710   24.8970  106.4070 C.3   438  MET438      0.0692
    105  N         12.3580   26.1210  113.2520 N.3   440  PRO440     -0.2116
    106  CA        12.1560   26.3460  114.6870 C.3   440  PRO440      0.1372
    107  C         11.4230   25.1840  115.3700 C.2   440  PRO440      0.2244
    108  O         10.4280   24.6670  114.8450 O.2   440  PRO440     -0.2868
    109  CB        11.3670   27.6680  114.7330 C.3   440  PRO440      0.0268
    110  CG        10.6470   27.6960  113.4490 C.3   440  PRO440      0.0207
    111  CD        11.6910   27.1800  112.4690 C.3   440  PRO440      0.0892
    112  N          9.4850   25.1970  117.5690 N.3   442  THR442     -0.1203
    113  CA         8.1330   25.5880  117.9450 C.3   442  THR442      0.1994
    114  C          7.1500   24.9510  116.9740 C.2   442  THR442      0.2617
    115  O          6.1390   24.3780  117.3840 O.2   442  THR442     -0.2717
    116  CB         7.9440   27.1100  117.8470 C.3   442  THR442      0.1784
    117  OG1        9.1060   27.7740  118.3580 O.3   442  THR442     -0.2211
    118  CG2        6.7150   27.5410  118.6310 C.3   442  THR442      0.0376
    119  N          7.4730   25.0680  115.6840 N.am  443  VAL443     -0.1979
    120  CA         6.6610   24.5550  114.5790 C.3   443  VAL443      0.1595
    121  C          6.4440   23.0490  114.6200 C.2   443  VAL443      0.2287
    122  O          7.3880   22.2670  114.7650 O.2   443  VAL443     -0.2864
    123  CB         7.2940   24.9010  113.2180 C.3   443  VAL443      0.0276
    124  CG1        6.3130   24.6030  112.1070 C.3   443  VAL443      0.0022
    125  CG2        7.7240   26.3540  113.1930 C.3   443  VAL443      0.0022
@<TRIPOS>BOND
     1    45    44    1
     2    42    44   ar
     3    42    40   ar
     4    44    43   ar
     5    29    28    2
     6    40    39   ar
     7    28    27    1
     8    34    35    1
     9    43    41   ar
    10    22    21    2
    11    35    38    1
    12    35    36    1
    13    39    41   ar
    14    39    38    1
    15    32    33    1
    16    32    31    1
    17    19    20    1
    18    19    25    1
    19    21    20    1
    20    21    26   am
    21    20    23    1
    22    27    26    1
    23    27    30    1
    24    36    37    2
    25    30    31    1
    26    25    24    1
    27    23    24    1
    28     8     7    2
    29   104   103    1
    30     7     6    1
    31    18    17   ar
    32    18    16   ar
    33    46    47    1
    34    17    15   ar
    35   103   102    1
    36    16    14   ar
    37    15    12   ar
    38    51    52    1
    39    51    53    1
    40    51    50    1
    41    14    12   ar
    42    14    13   ar
    43    12    10   ar
    44     6     5    1
    45     6     9    1
    46    92    91    2
    47    47    50    1
    48    47    48    1
    49     5     3   am
    50    59    58    1
    51    96    94    1
    52     1     2    1
    53    13    11   ar
    54    58    55    1
    55   102   101    1
    56    10     9    1
    57    10    11   ar
    58    54    48   am
    59    54    55    1
    60    48    49    2
    61   101    98    1
    62    90    91    1
    63    90    93    1
    64    90    89    1
    65     3     2    1
    66     3     4    2
    67    55    56    1
    68    94    93    1
    69    94    95    1
    70    98    97    1
    71    98    99    1
    72    68    66   ar
    73    56    60   am
    74    56    57    2
    75    99   100    2
    76    65    66    1
    77    65    64    1
    78    60    61    1
    79    66    67   ar
    80    83    82    2
    81   124   123    1
    82    85    86    1
    83    85    84    1
    84    64    61    1
    85    61    62    1
    86   111   105    1
    87   111   110    1
    88    86    87    1
    89    82    81    1
    90    69    62   am
    91    69    70    1
    92    81    84    1
    93    81    80    1
    94   125   123    1
    95   123   120    1
    96   105   106    1
    97    62    63    2
    98   110   109    1
    99    70    71    1
   100    88    87    1
   101    71    72    2
   102   120   121    1
   103   120   119    1
   104   121   122    2
   105   106   109    1
   106   106   107    1
   107   108   107    2
   108   119   114   am
   109    76    75    2
   110   114   115    2
   111   114   113    1
   112    75    74    1
   113    74    73    1
   114    74    77    1
   115   112   113    1
   116   116   113    1
   117   116   117    1
   118   116   118    1
   119    78    77    1
   120    77    79    1
