@<TRIPOS>MOLECULE
tmp/1ya6C00.pdb
 170 163 0 0 0
SMALL
GASTEIGER

@<TRIPOS>ATOM
      1  N         25.7970   80.8340    7.8310 N.3    14  GLY14      -0.1210
      2  CA        25.5490   82.1610    8.3600 C.3    14  GLY14       0.1956
      3  C         26.6870   83.1560    8.2960 C.2    14  GLY14       0.2612
      4  O         26.6980   84.1490    9.0210 O.2    14  GLY14      -0.2717
      5  N         27.6440   82.9090    7.4200 N.am   15  CYS15      -0.1956
      6  CA        28.7560   83.8130    7.2970 C.3    15  CYS15       0.1843
      7  C         28.8660   84.3440    5.8830 C.2    15  CYS15       0.2626
      8  O         27.8560   84.7310    5.2670 O.2    15  CYS15      -0.2714
      9  CB        30.0540   83.1290    7.7090 C.3    15  CYS15       0.0997
     10  SG        30.0300   82.4860    9.4040 S.3    15  CYS15      -0.0797
     11  N         30.0920   84.3630    5.3720 N.am   16  GLY16      -0.1940
     12  CA        30.3300   84.8910    4.0510 C.3    16  GLY16       0.2014
     13  C         29.7250   84.1380    2.8930 C.2    16  GLY16       0.2638
     14  O         29.3750   84.7450    1.8860 O.2    16  GLY16      -0.2714
     15  N         29.6210   82.8220    3.0060 N.am   17  VAL17      -0.1977
     16  CA        29.0550   82.0460    1.9170 C.3    17  VAL17       0.1596
     17  C         27.5340   82.2580    1.9120 C.2    17  VAL17       0.2287
     18  O         26.9170   82.3830    0.8600 O.2    17  VAL17      -0.2864
     19  CB        29.4430   80.5410    2.0510 C.3    17  VAL17       0.0276
     20  CG1       29.0080   79.7690    0.8320 C.3    17  VAL17       0.0022
     21  CG2       30.9630   80.4220    2.2210 C.3    17  VAL17       0.0022
     22  N         26.0780   84.9140    3.1630 N.3    19  LYS19      -0.1245
     23  CA        25.9500   86.3070    2.7750 C.3    19  LYS19       0.1561
     24  C         26.0680   86.3880    1.2710 C.2    19  LYS19       0.2260
     25  O         25.1460   86.8430    0.5970 O.2    19  LYS19      -0.2867
     26  CB        27.0420   87.1460    3.4310 C.3    19  LYS19       0.0271
     27  CG        27.0290   88.6290    3.0380 C.3    19  LYS19       0.0035
     28  CD        25.8270   89.3720    3.5930 C.3    19  LYS19       0.0206
     29  CE        26.0110   90.8730    3.4190 C.3    19  LYS19       0.1093
     30  NZ        24.7550   91.6320    3.6710 N.3    19  LYS19      -0.1314
     31  N         25.0940   80.3610   13.4570 N.3    47  ARG47      -0.1245
     32  CA        24.6570   81.6510   12.9560 C.3    47  ARG47       0.1563
     33  C         23.5130   81.5680   11.9470 C.2    47  ARG47       0.2260
     34  O         23.3350   82.4460   11.1010 O.2    47  ARG47      -0.2867
     35  CB        25.8640   82.3830   12.3790 C.3    47  ARG47       0.0307
     36  CG        26.9370   82.5680   13.4270 C.3    47  ARG47       0.0489
     37  CD        28.1910   83.1980   12.8820 C.3    47  ARG47       0.2205
     38  NE        29.3430   82.5010   13.4300 N.pl3  47  ARG47      -0.0865
     39  CZ        30.1870   83.0190   14.3120 C.cat  47  ARG47       0.5346
     40  NH1       30.0250   84.2600   14.7560 N.pl3  47  ARG47       0.1354
     41  NH2       31.1920   82.2800   14.7610 N.pl3  47  ARG47       0.1354
     42  N         21.6750   84.7700   11.6400 N.3    50  SER50      -0.1202
     43  CA        22.4330   86.0110   11.4730 C.3    50  SER50       0.2020
     44  C         22.0070   86.8490   10.2780 C.2    50  SER50       0.2618
     45  O         22.1640   88.0680   10.2780 O.2    50  SER50      -0.2717
     46  CB        23.9370   85.7120   11.3880 C.3    50  SER50       0.2103
     47  OG        24.4250   85.3140   12.6650 O.3    50  SER50      -0.2182
     48  N         21.4910   86.1930    9.2490 N.am   51  HIS51      -0.1975
     49  CA        21.0250   86.8900    8.0600 C.3    51  HIS51       0.1656
     50  C         19.5570   86.5220    7.8930 C.2    51  HIS51       0.2291
     51  O         19.1100   85.4700    8.3600 O.2    51  HIS51      -0.2864
     52  CB        21.8230   86.4750    6.8260 C.3    51  HIS51       0.0771
     53  CG        23.2770   86.8240    6.8990 C.ar   51  HIS51       0.0820
     54  ND1       24.2140   85.9960    7.4810 N.ar   51  HIS51      -0.2267
     55  CD2       23.9470   87.9380    6.5130 C.ar   51  HIS51       0.1154
     56  CE1       25.3960   86.5890    7.4530 C.ar   51  HIS51       0.1986
     57  NE2       25.2620   87.7680    6.8710 N.ar   51  HIS51      -0.2212
     58  N         33.8460   90.2120   13.6630 N.3   183  GLY183     -0.1210
     59  CA        34.4710   89.0690   13.0230 C.3   183  GLY183      0.1956
     60  C         34.0590   87.8210   13.7780 C.2   183  GLY183      0.2611
     61  O         32.9120   87.7020   14.2150 O.2   183  GLY183     -0.2717
     62  N         34.9750   86.8710   13.9220 N.am  184  ARG184     -0.1979
     63  CA        34.6640   85.6600   14.6670 C.3   184  ARG184      0.1597
     64  C         35.9000   85.0710   15.3040 C.2   184  ARG184      0.2287
     65  O         37.0060   85.5480   15.0630 O.2   184  ARG184     -0.2864
     66  CB        33.9390   84.6290   13.7960 C.3   184  ARG184      0.0334
     67  CG        34.4670   84.4080   12.4210 C.3   184  ARG184      0.0492
     68  CD        33.5870   83.3920   11.7110 C.3   184  ARG184      0.2205
     69  NE        34.1150   83.0490   10.3960 N.pl3 184  ARG184     -0.0865
     70  CZ        35.2160   82.3270   10.1920 C.cat 184  ARG184      0.5346
     71  NH1       35.6180   82.0770    8.9530 N.pl3 184  ARG184      0.1354
     72  NH2       35.9010   81.8360   11.2230 N.pl3 184  ARG184      0.1354
     73  N         43.2270   84.6530   12.5460 N.3   188  TRP188     -0.1227
     74  CA        43.5080   85.6130   11.4810 C.3   188  TRP188      0.1737
     75  C         42.4730   86.7510   11.3480 C.2   188  TRP188      0.2595
     76  O         42.6170   87.6200   10.4940 O.2   188  TRP188     -0.2718
     77  CB        43.7110   84.9100   10.1350 C.3   188  TRP188      0.0564
     78  CG        42.6250   83.9760    9.7480 C.ar  188  TRP188      0.0003
     79  CD1       42.4850   82.6770   10.1350 C.ar  188  TRP188      0.0946
     80  CD2       41.5060   84.2680    8.8940 C.ar  188  TRP188      0.0152
     81  NE1       41.3460   82.1380    9.5760 N.ar  188  TRP188     -0.2442
     82  CE2       40.7300   83.0920    8.8100 C.ar  188  TRP188      0.0810
     83  CE3       41.0840   85.4130    8.1930 C.ar  188  TRP188      0.0012
     84  CZ2       39.5540   83.0250    8.0490 C.ar  188  TRP188      0.0191
     85  CZ3       39.9170   85.3480    7.4370 C.ar  188  TRP188      0.0001
     86  CH2       39.1660   84.1630    7.3700 C.ar  188  TRP188      0.0015
     87  N         41.4360   86.7540   12.1840 N.am  189  LYS189     -0.1980
     88  CA        40.4620   87.8360   12.1440 C.3   189  LYS189      0.1596
     89  C         41.0540   88.9760   12.9820 C.2   189  LYS189      0.2287
     90  O         40.4990   90.0740   13.0670 O.2   189  LYS189     -0.2864
     91  CB        39.1180   87.4010   12.7460 C.3   189  LYS189      0.0298
     92  CG        38.3600   86.3370   11.9640 C.3   189  LYS189      0.0038
     93  CD        37.9680   86.8190   10.5820 C.3   189  LYS189      0.0206
     94  CE        37.0140   85.8460    9.8870 C.3   189  LYS189      0.1093
     95  NZ        36.5260   86.4090    8.5790 N.3   189  LYS189     -0.1314
     96  N         30.6110   89.0730   17.6430 N.3   213  GLY213     -0.1225
     97  CA        30.8050   87.8530   16.8890 C.3   213  GLY213      0.1811
     98  C         31.6740   86.7610   17.4680 C.2   213  GLY213      0.2280
     99  O         31.6970   85.6630   16.9100 O.2   213  GLY213     -0.2866
    100  N         27.7500   85.5720   18.5610 N.3   254  CYS254     -0.1221
    101  CA        27.0850   85.5740   17.2650 C.3   254  CYS254      0.1808
    102  C         25.9620   86.5910   17.2640 C.2   254  CYS254      0.2601
    103  O         25.0120   86.4990   18.0340 O.2   254  CYS254     -0.2717
    104  CB        26.5610   84.1900   16.9530 C.3   254  CYS254      0.0970
    105  SG        27.9090   83.0370   17.0150 S.3   254  CYS254     -0.0800
    106  N         26.0950   87.5630   16.3750 N.am  255  TYR255     -0.1976
    107  CA        25.1610   88.6670   16.2660 C.3   255  TYR255      0.1639
    108  C         24.3220   88.6780   14.9830 C.2   255  TYR255      0.2290
    109  O         24.6760   88.0380   13.9850 O.2   255  TYR255     -0.2864
    110  CB        25.9690   89.9520   16.3560 C.3   255  TYR255      0.0560
    111  CG        26.8830   90.1370   15.1700 C.ar  255  TYR255     -0.0198
    112  CD1       26.3750   90.5080   13.9280 C.ar  255  TYR255     -0.0009
    113  CD2       28.2590   89.9630   15.2900 C.ar  255  TYR255     -0.0009
    114  CE1       27.2140   90.7110   12.8480 C.ar  255  TYR255      0.0417
    115  CE2       29.1050   90.1600   14.2080 C.ar  255  TYR255      0.0417
    116  CZ        28.5790   90.5370   13.0000 C.ar  255  TYR255      0.1957
    117  OH        29.4140   90.7790   11.9360 O.3   255  TYR255     -0.2866
    118  N         23.0690   90.3070   11.6760 N.3   257  ASN257     -0.1240
    119  CA        23.7000   91.2430   10.7590 C.3   257  ASN257      0.1653
    120  C         23.0580   92.6160   10.6900 C.2   257  ASN257      0.2266
    121  O         23.7570   93.6270   10.6890 O.2   257  ASN257     -0.2867
    122  CB        23.7890   90.6600    9.3430 C.3   257  ASN257      0.1155
    123  CG        24.5790   91.5640    8.3940 C.2   257  ASN257      0.2627
    124  OD1       24.0080   92.2200    7.5160 O.2   257  ASN257     -0.2716
    125  ND2       25.8980   91.6160    8.5810 N.am  257  ASN257     -0.0877
    126  N         23.6570   94.6530   13.8320 N.3   260  MET260     -0.1245
    127  CA        25.0610   95.0480   13.8830 C.3   260  MET260      0.1570
    128  C         25.2930   96.2900   13.0580 C.2   260  MET260      0.2261
    129  O         26.0000   97.2000   13.4830 O.2   260  MET260     -0.2867
    130  CB        25.9540   93.9090   13.3720 C.3   260  MET260      0.0387
    131  CG        27.4690   94.1460   13.4680 C.3   260  MET260      0.0595
    132  SD        28.1290   95.2940   12.2680 S.3   260  MET260     -0.1393
    133  CE        28.0300   94.3540   10.7590 C.3   260  MET260      0.0692
    134  N         36.5460   90.9980    2.4530 N.3   286  GLU286     -0.1231
    135  CA        35.5260   90.2070    3.1300 C.3   286  GLU286      0.1699
    136  C         34.2770   91.0210    3.4520 C.2   286  GLU286      0.2592
    137  O         34.3500   92.2330    3.6460 O.2   286  GLU286     -0.2718
    138  CB        36.1040   89.6370    4.4140 C.3   286  GLU286      0.0402
    139  CG        37.3140   88.7720    4.1700 C.3   286  GLU286      0.1161
    140  CD        37.8160   88.1340    5.4410 C.2   286  GLU286      0.3649
    141  OE1       38.4660   88.8400    6.2400 O.co2 286  GLU286     -0.2457
    142  OE2       37.5370   86.9320    5.6480 O.co2 286  GLU286     -0.2457
    143  N         33.1270   90.3590    3.5160 N.am  287  TYR287     -0.1962
    144  CA        31.9010   91.0740    3.8140 C.3   287  TYR287      0.1771
    145  C         32.0040   92.0910    4.9450 C.2   287  TYR287      0.2620
    146  O         31.5250   93.2190    4.7930 O.2   287  TYR287     -0.2715
    147  CB        30.7530   90.0880    4.0590 C.3   287  TYR287      0.0574
    148  CG        30.2490   89.5930    2.7340 C.ar  287  TYR287     -0.0198
    149  CD1       30.3900   88.2590    2.3440 C.ar  287  TYR287     -0.0009
    150  CD2       29.7780   90.5040    1.7960 C.ar  287  TYR287     -0.0009
    151  CE1       30.0920   87.8650    1.0370 C.ar  287  TYR287      0.0417
    152  CE2       29.4790   90.1230    0.5060 C.ar  287  TYR287      0.0417
    153  CZ        29.6410   88.8170    0.1200 C.ar  287  TYR287      0.1957
    154  OH        29.4110   88.5060   -1.2040 O.3   287  TYR287     -0.2866
    155  N         32.6260   91.7200    6.0630 N.am  288  THR288     -0.1951
    156  CA        32.7560   92.6490    7.1870 C.3   288  THR288      0.1897
    157  C         33.6070   93.8480    6.8210 C.2   288  THR288      0.2313
    158  O         33.5510   94.8750    7.4840 O.2   288  THR288     -0.2863
    159  CB        33.3710   91.9850    8.4290 C.3   288  THR288      0.1794
    160  OG1       34.5830   91.3160    8.0640 O.3   288  THR288     -0.2208
    161  CG2       32.3810   91.0070    9.0520 C.3   288  THR288      0.0378
    162  N         31.0620   96.0720    4.9310 N.3   291  GLU291     -0.1245
    163  CA        29.9600   96.5020    5.7830 C.3   291  GLU291      0.1567
    164  C         30.3340   97.6940    6.6460 C.2   291  GLU291      0.2260
    165  O         29.4580   98.3530    7.2190 O.2   291  GLU291     -0.2867
    166  CB        29.4990   95.3520    6.6740 C.3   291  GLU291      0.0388
    167  CG        28.5810   94.3740    5.9590 C.3   291  GLU291      0.1160
    168  CD        28.3530   93.0910    6.7390 C.2   291  GLU291      0.3649
    169  OE1       27.3050   92.4460    6.5170 O.co2 291  GLU291     -0.2457
    170  OE2       29.2200   92.7220    7.5650 O.co2 291  GLU291     -0.2457
@<TRIPOS>BOND
     1   154   153    1
     2   153   152   ar
     3   153   151   ar
     4   152   150   ar
     5    25    24    2
     6    20    19    1
     7    18    17    2
     8   151   149   ar
     9    24    23    1
    10   150   148   ar
    11    14    13    2
    12    17    16    1
    13    16    19    1
    14    16    15    1
    15    19    21    1
    16   149   148   ar
    17   134   135    1
    18   148   147    1
    19    23    22    1
    20    23    26    1
    21    13    15   am
    22    13    12    1
    23    27    26    1
    24    27    28    1
    25   135   136    1
    26   135   138    1
    27    29    28    1
    28    29    30    1
    29   136   143   am
    30   136   137    2
    31   143   144    1
    32   144   147    1
    33   144   145    1
    34    12    11    1
    35   139   138    1
    36   139   140    1
    37   146   145    2
    38   162   163    1
    39   145   155   am
    40     8     7    2
    41    11     7   am
    42   140   142   ar
    43   140   141   ar
    44   163   164    1
    45   163   166    1
    46     7     6    1
    47   167   166    1
    48   167   168    1
    49   155   156    1
    50    55    57   ar
    51    55    53   ar
    52   169   168   ar
    53   164   165    2
    54   168   170   ar
    55   157   156    1
    56   157   158    2
    57    52    53    1
    58    52    49    1
    59    57    56   ar
    60    53    54   ar
    61   156   159    1
    62     6     5    1
    63     6     9    1
    64    86    85   ar
    65    86    84   ar
    66     5     3   am
    67    85    83   ar
    68    56    54   ar
    69   124   123    2
    70     9    10    1
    71     1     2    1
    72    50    49    1
    73    50    51    2
    74    84    82   ar
    75    49    48    1
    76   160   159    1
    77    83    80   ar
    78     3     2    1
    79     3     4    2
    80   123   125   am
    81   123   122    1
    82   159   161    1
    83    95    94    1
    84    82    80   ar
    85    82    81   ar
    86    80    78   ar
    87    71    70    1
    88    48    44   am
    89   122   119    1
    90    81    79   ar
    91    78    79   ar
    92    78    77    1
    93    94    93    1
    94    77    74    1
    95    70    69    2
    96    70    72    1
    97    45    44    2
    98    44    43    1
    99    69    68    1
   100    76    75    2
   101    93    92    1
   102   121   120    2
   103   120   119    1
   104   133   132    1
   105   119   118    1
   106    34    33    2
   107    75    74    1
   108    75    87   am
   109    46    43    1
   110    46    47    1
   111    43    42    1
   112    74    73    1
   113    68    67    1
   114   117   116    1
   115    33    32    1
   116    92    91    1
   117    88    87    1
   118    88    91    1
   119    88    89    1
   120   132   131    1
   121    35    32    1
   122    35    36    1
   123    67    66    1
   124   114   116   ar
   125   114   112   ar
   126    37    36    1
   127    37    38    1
   128    32    31    1
   129    89    90    2
   130   116   115   ar
   131    59    58    1
   132    59    60    1
   133   128   129    2
   134   128   127    1
   135   130   131    1
   136   130   127    1
   137    38    39    2
   138    60    62   am
   139    60    61    2
   140    66    63    1
   141   126   127    1
   142    62    63    1
   143   112   111   ar
   144   109   108    2
   145   115   113   ar
   146    39    40    1
   147    39    41    1
   148    63    64    1
   149   108   107    1
   150    65    64    2
   151   111   113   ar
   152   111   110    1
   153   107   110    1
   154   107   106    1
   155   106   102   am
   156    97    98    1
   157    97    96    1
   158    99    98    2
   159   104   105    1
   160   104   101    1
   161   102   101    1
   162   102   103    2
   163   101   100    1
