@<TRIPOS>MOLECULE
tmp/1ya8C02.pdb
 102 97 0 0 0
SMALL
GASTEIGER

@<TRIPOS>ATOM
      1  N         48.6800   -6.3340   51.5960 N.3   336  GLY336     -0.1210
      2  CA        49.8930   -6.0120   50.8690 C.3   336  GLY336      0.1956
      3  C         50.2380   -4.5540   50.6190 C.2   336  GLY336      0.2611
      4  O         51.4220   -4.2360   50.5000 O.2   336  GLY336     -0.2717
      5  N         49.2450   -3.6720   50.5310 N.am  337  TRP337     -0.1976
      6  CA        49.5280   -2.2660   50.2780 C.3   337  TRP337      0.1640
      7  C         48.3700   -1.3010   50.5820 C.2   337  TRP337      0.2290
      8  O         48.4410   -0.5090   51.5250 O.2   337  TRP337     -0.2864
      9  CB        49.9550   -2.0950   48.8100 C.3   337  TRP337      0.0576
     10  CG        50.3290   -0.7130   48.4330 C.ar  337  TRP337      0.0006
     11  CD1       51.4860   -0.0680   48.7330 C.ar  337  TRP337      0.0946
     12  CD2       49.5320    0.2090   47.6910 C.ar  337  TRP337      0.0152
     13  NE1       51.4630    1.2050   48.2210 N.ar  337  TRP337     -0.2442
     14  CE2       50.2720    1.4010   47.5750 C.ar  337  TRP337      0.0810
     15  CE3       48.2570    0.1430   47.1110 C.ar  337  TRP337      0.0012
     16  CZ2       49.7880    2.5210   46.9010 C.ar  337  TRP337      0.0191
     17  CZ3       47.7730    1.2560   46.4400 C.ar  337  TRP337      0.0001
     18  CH2       48.5390    2.4310   46.3400 C.ar  337  TRP337      0.0015
     19  N         47.3570   -1.0090   54.3430 N.3   340  PRO340     -0.2102
     20  CA        48.3890   -0.4280   55.2020 C.3   340  PRO340      0.1504
     21  C         48.6940    1.0090   54.8100 C.2   340  PRO340      0.2575
     22  O         49.1510    1.8040   55.6330 O.2   340  PRO340     -0.2718
     23  CB        49.5730   -1.3640   54.9930 C.3   340  PRO340      0.0282
     24  CG        48.9150   -2.6670   54.7810 C.3   340  PRO340      0.0208
     25  CD        47.8000   -2.3120   53.8230 C.3   340  PRO340      0.0893
     26  N         48.4350    1.3400   53.5500 N.am  341  MET341     -0.1980
     27  CA        48.6770    2.6880   53.0550 C.3   341  MET341      0.1605
     28  C         47.6030    3.6480   53.5690 C.2   341  MET341      0.2287
     29  O         47.9030    4.5930   54.2990 O.2   341  MET341     -0.2864
     30  CB        48.7140    2.6770   51.5190 C.3   341  MET341      0.0413
     31  CG        48.8780    4.0380   50.8630 C.3   341  MET341      0.0598
     32  SD        47.3010    4.8540   50.5410 S.3   341  MET341     -0.1393
     33  CE        47.5170    5.3920   48.8230 C.3   341  MET341      0.0692
     34  N         50.1340    2.9620   58.0020 N.3   345  TYR345     -0.1241
     35  CA        50.8560    1.9800   58.7960 C.3   345  TYR345      0.1605
     36  C         52.3360    2.3450   58.7920 C.2   345  TYR345      0.2264
     37  O         52.8960    2.6640   57.7430 O.2   345  TYR345     -0.2867
     38  CB        50.6720    0.5900   58.1930 C.3   345  TYR345      0.0534
     39  CG        50.3900   -0.4840   59.2130 C.ar  345  TYR345     -0.0201
     40  CD1       49.1710   -0.5230   59.8920 C.ar  345  TYR345     -0.0009
     41  CD2       51.3360   -1.4690   59.4890 C.ar  345  TYR345     -0.0009
     42  CE1       48.8990   -1.5210   60.8160 C.ar  345  TYR345      0.0417
     43  CE2       51.0770   -2.4720   60.4130 C.ar  345  TYR345      0.0417
     44  CZ        49.8560   -2.4940   61.0710 C.ar  345  TYR345      0.1957
     45  OH        49.5900   -3.5000   61.9690 O.3   345  TYR345     -0.2866
     46  N         55.5190    1.5910   58.1900 N.3   347  LEU347     -0.1231
     47  CA        56.3690    0.6250   57.4980 C.3   347  LEU347      0.1693
     48  C         57.0490    1.2730   56.3020 C.2   347  LEU347      0.2592
     49  O         56.9330    0.8090   55.1670 O.2   347  LEU347     -0.2718
     50  CB        55.5400   -0.5790   57.0390 C.3   347  LEU347      0.0284
     51  CG        55.0080   -1.4740   58.1610 C.3   347  LEU347      0.0019
     52  CD1       54.0570   -2.5010   57.5890 C.3   347  LEU347      0.0001
     53  CD2       56.1700   -2.1480   58.8690 C.3   347  LEU347      0.0001
     54  N         57.7580    2.3580   56.5770 N.am  348  SER348     -0.1952
     55  CA        58.4720    3.0990   55.5530 C.3   348  SER348      0.1924
     56  C         59.8480    2.4980   55.2720 C.2   348  SER348      0.2314
     57  O         60.2330    2.3100   54.1160 O.2   348  SER348     -0.2863
     58  CB        58.6020    4.5610   55.9890 C.3   348  SER348      0.2116
     59  OG        58.6220    4.6640   57.4060 O.3   348  SER348     -0.2180
     60  N         60.6920   -0.1440   55.0760 N.3   350  GLY350     -0.1225
     61  CA        60.5090   -1.4150   54.3970 C.3   350  GLY350      0.1811
     62  C         60.9820   -2.6850   55.0820 C.2   350  GLY350      0.2280
     63  O         61.2010   -3.6950   54.4140 O.2   350  GLY350     -0.2866
     64  N         58.6880   -8.4880   57.2400 N.3   393  LYS393     -0.1245
     65  CA        57.6720   -7.4730   57.0070 C.3   393  LYS393      0.1561
     66  C         56.5350   -8.0880   56.1970 C.2   393  LYS393      0.2260
     67  O         55.3640   -7.9000   56.5170 O.2   393  LYS393     -0.2867
     68  CB        58.2460   -6.2860   56.2390 C.3   393  LYS393      0.0271
     69  CG        57.1930   -5.2500   55.8720 C.3   393  LYS393      0.0035
     70  CD        57.6580   -4.3470   54.7420 C.3   393  LYS393      0.0206
     71  CE        57.9380   -5.1350   53.4660 C.3   393  LYS393      0.1093
     72  NZ        56.7350   -5.8270   52.9450 N.3   393  LYS393     -0.1314
     73  N         52.7110   -8.9620   57.2210 N.3   397  LEU397     -0.1245
     74  CA        51.5670   -8.4930   56.4620 C.3   397  LEU397      0.1561
     75  C         50.6760   -9.6780   56.1070 C.2   397  LEU397      0.2260
     76  O         49.5290   -9.5070   55.6890 O.2   397  LEU397     -0.2867
     77  CB        52.0270   -7.7670   55.2010 C.3   397  LEU397      0.0270
     78  CG        52.7650   -6.4630   55.4890 C.3   397  LEU397      0.0019
     79  CD1       53.0790   -5.7470   54.1780 C.3   397  LEU397      0.0001
     80  CD2       51.9040   -5.5920   56.4000 C.3   397  LEU397      0.0001
     81  N         52.2170    4.2500   43.0710 N.3   438  MET438     -0.1245
     82  CA        52.8660    4.1130   44.3680 C.3   438  MET438      0.1570
     83  C         52.7600    2.7080   44.9480 C.2   438  MET438      0.2261
     84  O         53.0270    2.5010   46.1300 O.2   438  MET438     -0.2867
     85  CB        52.2550    5.0990   45.3560 C.3   438  MET438      0.0387
     86  CG        52.1420    6.5090   44.8340 C.3   438  MET438      0.0595
     87  SD        51.1870    7.5460   45.9520 S.3   438  MET438     -0.1393
     88  CE        49.5210    6.8200   45.7680 C.3   438  MET438      0.0692
     89  N         54.1610   -1.0750   44.9970 N.3   440  PRO440     -0.2116
     90  CA        55.2630   -1.9600   44.6080 C.3   440  PRO440      0.1372
     91  C         54.8000   -3.0940   43.7080 C.2   440  PRO440      0.2244
     92  O         53.8360   -3.7940   44.0170 O.2   440  PRO440     -0.2868
     93  CB        55.8130   -2.4540   45.9520 C.3   440  PRO440      0.0268
     94  CG        54.7010   -2.1870   46.9280 C.3   440  PRO440      0.0207
     95  CD        54.1370   -0.8860   46.4540 C.3   440  PRO440      0.0892
     96  N         53.7850   -6.5830   44.9550 N.3   443  VAL443     -0.1245
     97  CA        52.5220   -6.8460   45.6490 C.3   443  VAL443      0.1561
     98  C         51.5490   -7.3800   44.6130 C.2   443  VAL443      0.2260
     99  O         51.1600   -6.6620   43.6930 O.2   443  VAL443     -0.2867
    100  CB        51.9200   -5.5710   46.2530 C.3   443  VAL443      0.0252
    101  CG1       50.6630   -5.9230   47.0160 C.3   443  VAL443      0.0019
    102  CG2       52.9280   -4.8910   47.1590 C.3   443  VAL443      0.0019
@<TRIPOS>BOND
     1    81    82    1
     2    99    98    2
     3    91    92    2
     4    91    90    1
     5    82    83    1
     6    82    85    1
     7    90    89    1
     8    90    93    1
     9    98    97    1
    10    86    85    1
    11    86    87    1
    12    83    84    2
    13    96    97    1
    14    89    95    1
    15    97   100    1
    16    88    87    1
    17    93    94    1
    18   100   101    1
    19   100   102    1
    20    18    17   ar
    21    18    16   ar
    22    17    15   ar
    23    95    94    1
    24    16    14   ar
    25    15    12   ar
    26    14    12   ar
    27    14    13   ar
    28    12    10   ar
    29    13    11   ar
    30    10    11   ar
    31    10     9    1
    32     9     6    1
    33    33    32    1
    34     6     5    1
    35     6     7    1
    36     4     3    2
    37     5     3   am
    38    32    31    1
    39     7     8    2
    40     3     2    1
    41    31    30    1
    42     2     1    1
    43    30    27    1
    44    72    71    1
    45    27    26    1
    46    27    28    1
    47    71    70    1
    48    26    21   am
    49    28    29    2
    50    25    19    1
    51    25    24    1
    52    57    56    2
    53    79    78    1
    54    19    20    1
    55    61    60    1
    56    61    62    1
    57    63    62    2
    58    70    69    1
    59    24    23    1
    60    21    20    1
    61    21    22    2
    62    23    20    1
    63    49    48    2
    64    77    78    1
    65    77    74    1
    66    56    55    1
    67    78    80    1
    68    55    58    1
    69    55    54    1
    70    76    75    2
    71    69    68    1
    72    58    59    1
    73    75    74    1
    74    66    67    2
    75    66    65    1
    76    68    65    1
    77    48    54   am
    78    48    47    1
    79    74    73    1
    80    65    64    1
    81    50    47    1
    82    50    51    1
    83    47    46    1
    84    52    51    1
    85    37    36    2
    86    34    35    1
    87    51    53    1
    88    38    35    1
    89    38    39    1
    90    36    35    1
    91    39    41   ar
    92    39    40   ar
    93    41    43   ar
    94    40    42   ar
    95    43    44   ar
    96    42    44   ar
    97    44    45    1
