@<TRIPOS>MOLECULE
tmp/1ya8B03.pdb
 101 94 0 0 0
SMALL
GASTEIGER

@<TRIPOS>ATOM
      1  N         14.3500   19.9590   98.4540 N.3    77  LEU77      -0.1245
      2  CA        13.1150   19.2990   98.8400 C.3    77  LEU77       0.1561
      3  C         13.3360   17.7890   98.8910 C.2    77  LEU77       0.2260
      4  O         12.7580   17.0960   99.7360 O.2    77  LEU77      -0.2867
      5  CB        12.0030   19.6360   97.8470 C.3    77  LEU77       0.0270
      6  CG        10.5910   19.1420   98.1700 C.3    77  LEU77       0.0019
      7  CD1       10.1730   19.6110   99.5510 C.3    77  LEU77       0.0001
      8  CD2        9.6340   19.6630   97.1240 C.3    77  LEU77       0.0001
      9  N         12.4110   15.8310  102.2960 N.3    81  PHE81      -0.1241
     10  CA        11.3640   14.8140  102.2340 C.3    81  PHE81       0.1605
     11  C         11.8460   13.3640  102.1320 C.2    81  PHE81       0.2264
     12  O         11.1180   12.4520  102.5100 O.2    81  PHE81      -0.2867
     13  CB        10.4230   15.0750  101.0410 C.3    81  PHE81       0.0534
     14  CG         9.4030   16.1790  101.2580 C.ar   81  PHE81      -0.0203
     15  CD1        9.3460   16.8940  102.4500 C.ar   81  PHE81      -0.0042
     16  CD2        8.4810   16.4850  100.2500 C.ar   81  PHE81      -0.0042
     17  CE1        8.3860   17.8920  102.6340 C.ar   81  PHE81      -0.0003
     18  CE2        7.5240   17.4760  100.4240 C.ar   81  PHE81      -0.0003
     19  CZ         7.4740   18.1820  101.6190 C.ar   81  PHE81      -0.0000
     20  N          5.6810   19.0150   95.5020 N.3   122  GLY122     -0.1210
     21  CA         6.7070   19.9250   95.0390 C.3   122  GLY122      0.1956
     22  C          6.0570   21.0350   94.2400 C.2   122  GLY122      0.2612
     23  O          6.6910   21.6700   93.3980 O.2   122  GLY122     -0.2717
     24  N          4.7720   21.2490   94.5020 N.am  123  GLY123     -0.1956
     25  CA         4.0160   22.2940   93.8320 C.3   123  GLY123      0.1869
     26  C          4.0080   22.2740   92.3190 C.2   123  GLY123      0.2309
     27  O          3.8160   23.3120   91.6940 O.2   123  GLY123     -0.2863
     28  N          8.7770   21.2940   91.1460 N.3   126  VAL126     -0.1245
     29  CA         9.9580   20.4970   91.4470 C.3   126  VAL126      0.1561
     30  C          9.5630   19.1450   92.0470 C.2   126  VAL126      0.2260
     31  O          8.3880   18.8940   92.3130 O.2   126  VAL126     -0.2867
     32  CB        10.8770   21.2400   92.4500 C.3   126  VAL126      0.0252
     33  CG1       11.3250   22.5810   91.8640 C.3   126  VAL126      0.0019
     34  CG2       10.1400   21.4460   93.7790 C.3   126  VAL126      0.0019
     35  N          0.8780   16.9640   99.2670 N.3   201  SER201     -0.1217
     36  CA         0.9480   18.3190   98.7490 C.3   201  SER201      0.1889
     37  C          0.4240   18.3600   97.3080 C.2   201  SER201      0.2288
     38  O         -0.7370   17.9990   97.0420 O.2   201  SER201     -0.2866
     39  CB         2.3970   18.8100   98.8030 C.3   201  SER201      0.2089
     40  OG         2.4530   20.2210   98.7550 O.3   201  SER201     -0.2183
     41  N          8.6580   29.9500   92.5800 N.3   284  LEU284     -0.1245
     42  CA         8.6320   29.3800   93.9270 C.3   284  LEU284      0.1561
     43  C          8.7630   30.3900   95.0770 C.2   284  LEU284      0.2260
     44  O          8.3390   30.1130   96.2050 O.2   284  LEU284     -0.2867
     45  CB         9.7300   28.3120   94.0430 C.3   284  LEU284      0.0270
     46  CG         9.6720   27.1890   92.9970 C.3   284  LEU284      0.0019
     47  CD1       10.9550   26.3770   93.0280 C.3   284  LEU284      0.0001
     48  CD2        8.4590   26.3090   93.2610 C.3   284  LEU284      0.0001
     49  N          8.6990   24.2930  107.2680 N.3   338  LEU338     -0.1231
     50  CA         9.0560   23.9870  105.8840 C.3   338  LEU338      0.1693
     51  C          8.6530   24.9930  104.8170 C.2   338  LEU338      0.2591
     52  O          9.5140   25.6580  104.2390 O.2   338  LEU338     -0.2718
     53  CB         8.5190   22.6130  105.4800 C.3   338  LEU338      0.0284
     54  CG         8.9860   22.1790  104.0890 C.3   338  LEU338      0.0019
     55  CD1       10.4720   21.9030  104.1270 C.3   338  LEU338      0.0001
     56  CD2        8.2350   20.9510  103.6400 C.3   338  LEU338      0.0001
     57  N          7.3540   25.0930  104.5480 N.am  339  ILE339     -0.1980
     58  CA         6.8560   25.9980  103.5160 C.3   339  ILE339      0.1595
     59  C          7.3380   27.4480  103.6390 C.2   339  ILE339      0.2287
     60  O          7.9530   27.9760  102.7150 O.2   339  ILE339     -0.2864
     61  CB         5.3140   25.9830  103.4540 C.3   339  ILE339      0.0276
     62  CG1        4.8150   24.5460  103.3010 C.3   339  ILE339      0.0022
     63  CG2        4.8310   26.8280  102.2820 C.3   339  ILE339      0.0022
     64  CD1        3.3030   24.4190  103.2310 C.3   339  ILE339      0.0001
     65  N         11.0400   27.7120  102.7970 N.3   342  LEU342     -0.1231
     66  CA        11.3170   27.5380  101.3730 C.3   342  LEU342      0.1693
     67  C         10.8420   28.7140  100.5220 C.2   342  LEU342      0.2591
     68  O         11.3430   28.9240   99.4180 O.2   342  LEU342     -0.2718
     69  CB        10.6640   26.2600  100.8420 C.3   342  LEU342      0.0284
     70  CG        11.2390   24.8970  101.2160 C.3   342  LEU342      0.0019
     71  CD1       10.4610   23.8210  100.4940 C.3   342  LEU342      0.0001
     72  CD2       12.6970   24.8220  100.8290 C.3   342  LEU342      0.0001
     73  N          9.8650   29.4670  101.0210 N.am  343  MET343     -0.1979
     74  CA         9.3480   30.6200  100.2910 C.3   343  MET343      0.1605
     75  C         10.0390   31.8930  100.7410 C.2   343  MET343      0.2287
     76  O          9.8350   32.9590  100.1600 O.2   343  MET343     -0.2864
     77  CB         7.8460   30.7700  100.5070 C.3   343  MET343      0.0413
     78  CG         7.0020   29.8220   99.6930 C.3   343  MET343      0.0598
     79  SD         5.2660   30.2160   99.9090 S.3   343  MET343     -0.1393
     80  CE         5.1710   31.7910   99.0610 C.3   343  MET343      0.0692
     81  N         -4.7790   24.5240  103.5090 N.3   405  PHE405     -0.1241
     82  CA        -5.0250   23.1040  103.6930 C.3   405  PHE405      0.1605
     83  C         -6.2350   22.7290  104.5430 C.2   405  PHE405      0.2264
     84  O         -7.0390   21.8750  104.1480 O.2   405  PHE405     -0.2867
     85  CB        -3.7650   22.4420  104.2670 C.3   405  PHE405      0.0534
     86  CG        -2.4810   22.8930  103.6040 C.ar  405  PHE405     -0.0203
     87  CD1       -1.7910   24.0080  104.0750 C.ar  405  PHE405     -0.0042
     88  CD2       -1.9530   22.1930  102.5220 C.ar  405  PHE405     -0.0042
     89  CE1       -0.5980   24.4140  103.4840 C.ar  405  PHE405     -0.0003
     90  CE2       -0.7580   22.5970  101.9230 C.ar  405  PHE405     -0.0003
     91  CZ        -0.0820   23.7080  102.4090 C.ar  405  PHE405     -0.0000
     92  N          4.4190   20.6020  107.5940 N.3   447  HIS447     -0.1241
     93  CA         4.1630   20.1240  106.2350 C.3   447  HIS447      0.1621
     94  C          5.0950   18.9780  105.8130 C.2   447  HIS447      0.2264
     95  O          6.3170   19.1520  105.7440 O.2   447  HIS447     -0.2867
     96  CB         4.3150   21.2880  105.2510 C.3   447  HIS447      0.0745
     97  CG         3.8250   20.9870  103.8680 C.ar  447  HIS447      0.0817
     98  ND1        2.4990   20.7410  103.5850 N.ar  447  HIS447     -0.2268
     99  CD2        4.4810   20.9220  102.6850 C.ar  447  HIS447      0.1154
    100  CE1        2.3600   20.5400  102.2860 C.ar  447  HIS447      0.1986
    101  NE2        3.5470   20.6450  101.7160 N.ar  447  HIS447     -0.2212
@<TRIPOS>BOND
     1    28    29    1
     2    29    30    1
     3    29    32    1
     4    27    26    2
     5    33    32    1
     6    30    31    2
     7    26    25    1
     8    32    34    1
     9    41    42    1
    10    46    47    1
    11    46    48    1
    12    46    45    1
    13    23    22    2
    14    25    24    1
    15    42    45    1
    16    42    43    1
    17    22    24   am
    18    22    21    1
    19    21    20    1
    20    43    44    2
    21    38    37    2
    22     8     6    1
    23    37    36    1
    24     5     6    1
    25     5     2    1
    26     6     7    1
    27     1     2    1
    28    36    39    1
    29    36    35    1
    30    40    39    1
    31     2     3    1
    32     3     4    2
    33    80    79    1
    34    68    67    2
    35    78    79    1
    36    78    77    1
    37    76    75    2
    38    16    18   ar
    39    16    14   ar
    40    74    77    1
    41    74    75    1
    42    74    73    1
    43    18    19   ar
    44    71    70    1
    45    67    73   am
    46    67    66    1
    47    72    70    1
    48    69    70    1
    49    69    66    1
    50    13    14    1
    51    13    10    1
    52    14    15   ar
    53    66    65    1
    54    19    17   ar
    55   101   100   ar
    56   101    99   ar
    57    90    91   ar
    58    90    88   ar
    59    11    10    1
    60    11    12    2
    61    10     9    1
    62    63    61    1
    63   100    98   ar
    64    91    89   ar
    65    15    17   ar
    66    88    86   ar
    67    99    97   ar
    68    60    59    2
    69    64    62    1
    70    62    61    1
    71    61    58    1
    72    89    87   ar
    73    81    82    1
    74    58    59    1
    75    58    57    1
    76    98    97   ar
    77    86    87   ar
    78    86    85    1
    79    56    54    1
    80    82    85    1
    81    82    83    1
    82    97    96    1
    83    54    55    1
    84    54    53    1
    85    84    83    2
    86    52    51    2
    87    57    51   am
    88    51    50    1
    89    96    93    1
    90    53    50    1
    91    95    94    2
    92    94    93    1
    93    50    49    1
    94    93    92    1
