@<TRIPOS>MOLECULE
tmp/1yaaC01.pdb
 113 107 0 0 0
SMALL
GASTEIGER

@<TRIPOS>ATOM
      1  N          9.2770   -0.3570   19.5240 N.3   106  SER106     -0.1202
      2  CA         9.3420   -0.8820   20.8810 C.3   106  SER106      0.2020
      3  C          7.9490   -1.2630   21.4130 C.2   106  SER106      0.2619
      4  O          7.0580   -1.6050   20.6350 O.2   106  SER106     -0.2717
      5  CB        10.0670    0.1070   21.8020 C.3   106  SER106      0.2103
      6  OG        10.9780   -0.5710   22.6510 O.3   106  SER106     -0.2182
      7  N          7.7880   -1.2760   22.7330 N.am  107  GLY107     -0.1942
      8  CA         6.5110   -1.6290   23.3290 C.3   107  GLY107      0.2014
      9  C          5.4590   -0.5530   23.1720 C.2   107  GLY107      0.2639
     10  O          4.2720   -0.8610   23.0500 O.2   107  GLY107     -0.2714
     11  N          5.8810    0.7080   23.2140 N.am  108  THR108     -0.1950
     12  CA         4.9510    1.8250   23.0530 C.3   108  THR108      0.1897
     13  C          4.3890    1.7720   21.6320 C.2   108  THR108      0.2313
     14  O          3.2100    2.0590   21.4180 O.2   108  THR108     -0.2863
     15  CB         5.6260    3.2050   23.2990 C.3   108  THR108      0.1794
     16  OG1        6.1710    3.2520   24.6220 O.3   108  THR108     -0.2208
     17  CG2        4.6100    4.3400   23.1560 C.3   108  THR108      0.0378
     18  N          1.9250   -1.0240   21.4500 N.3   111  LEU111     -0.1245
     19  CA         0.7940   -0.5210   22.2280 C.3   111  LEU111      0.1561
     20  C         -0.0320    0.4780   21.3990 C.2   111  LEU111      0.2260
     21  O         -1.2630    0.5050   21.4860 O.2   111  LEU111     -0.2867
     22  CB         1.3260    0.1600   23.4950 C.3   111  LEU111      0.0270
     23  CG         1.1090   -0.3720   24.9170 C.3   111  LEU111      0.0019
     24  CD1        0.9070   -1.8670   24.9590 C.3   111  LEU111      0.0001
     25  CD2        2.2940    0.0370   25.7770 C.3   111  LEU111      0.0001
     26  N          1.2060    1.8520   34.4900 N.3   134  TRP134     -0.1241
     27  CA         2.2740    2.6110   33.8590 C.3   134  TRP134      0.1605
     28  C          1.6760    3.9470   33.4510 C.2   134  TRP134      0.2264
     29  O          0.6610    3.9930   32.7600 O.2   134  TRP134     -0.2867
     30  CB         2.7770    1.8730   32.6210 C.3   134  TRP134      0.0550
     31  CG         3.8730    2.5820   31.8910 C.ar  134  TRP134      0.0003
     32  CD1        4.9730    3.1790   32.4370 C.ar  134  TRP134      0.0946
     33  CD2        3.9960    2.7330   30.4730 C.ar  134  TRP134      0.0152
     34  NE1        5.7760    3.6850   31.4480 N.ar  134  TRP134     -0.2442
     35  CE2        5.2040    3.4260   30.2320 C.ar  134  TRP134      0.0810
     36  CE3        3.2040    2.3490   29.3820 C.ar  134  TRP134      0.0012
     37  CZ2        5.6430    3.7450   28.9410 C.ar  134  TRP134      0.0191
     38  CZ3        3.6380    2.6660   28.0990 C.ar  134  TRP134      0.0001
     39  CH2        4.8500    3.3590   27.8900 C.ar  134  TRP134      0.0015
     40  N         -0.2650   -6.6830   32.6100 N.3   182  HIS182     -0.1241
     41  CA         1.1970   -6.6770   32.7000 C.3   182  HIS182      0.1621
     42  C          1.6070   -8.1490   32.7940 C.2   182  HIS182      0.2264
     43  O          1.2280   -8.8460   33.7390 O.2   182  HIS182     -0.2867
     44  CB         1.6600   -5.9370   33.9620 C.3   182  HIS182      0.0745
     45  CG         1.3490   -4.4720   33.9600 C.ar  182  HIS182      0.0817
     46  ND1        2.3290   -3.5050   33.9080 N.ar  182  HIS182     -0.2268
     47  CD2        0.1690   -3.8090   34.0190 C.ar  182  HIS182      0.1154
     48  CE1        1.7680   -2.3090   33.9350 C.ar  182  HIS182      0.1986
     49  NE2        0.4590   -2.4650   34.0020 N.ar  182  HIS182     -0.2212
     50  N          4.7770   -2.8810   36.4130 N.3   187  ASN187     -0.1240
     51  CA         5.3310   -1.5330   36.4850 C.3   187  ASN187      0.1653
     52  C          3.9970   -0.8530   36.7930 C.2   187  ASN187      0.2266
     53  O          3.0660   -1.0450   36.0080 O.2   187  ASN187     -0.2867
     54  CB         5.8110   -1.1080   35.0880 C.3   187  ASN187      0.1155
     55  CG         6.2740    0.3310   35.0440 C.2   187  ASN187      0.2627
     56  OD1        5.6340    1.2470   35.5320 O.2   187  ASN187     -0.2716
     57  ND2        7.3980    0.5250   34.4030 N.am  187  ASN187     -0.0877
     58  N          0.9730   -6.6550   28.0050 N.3   215  ASP215     -0.1239
     59  CA         2.0500   -5.6900   27.8720 C.3   215  ASP215      0.1674
     60  C          3.2900   -6.3690   28.4370 C.2   215  ASP215      0.2266
     61  O          3.4170   -6.5250   29.6490 O.2   215  ASP215     -0.2867
     62  CB         1.6970   -4.4600   28.6950 C.3   215  ASP215      0.1410
     63  CG         2.6610   -3.3220   28.5040 C.2   215  ASP215      0.3668
     64  OD1        3.5120   -3.3450   27.5870 O.co2 215  ASP215     -0.2456
     65  OD2        2.5440   -2.3790   29.2970 O.co2 215  ASP215     -0.2456
     66  N          6.9300   -5.7800   28.7070 N.3   217  ALA217     -0.1231
     67  CA         8.1040   -4.9200   28.6310 C.3   217  ALA217      0.1694
     68  C          9.2380   -5.3640   29.5560 C.2   217  ALA217      0.2592
     69  O         10.3470   -4.8280   29.4770 O.2   217  ALA217     -0.2718
     70  CB         7.7090   -3.4870   28.9540 C.3   217  ALA217      0.0304
     71  N          8.9700   -6.3670   30.3920 N.am  218  TYR218     -0.1976
     72  CA         9.9450   -6.8550   31.3670 C.3   218  TYR218      0.1639
     73  C         10.1830   -8.3610   31.4320 C.2   218  TYR218      0.2290
     74  O         10.5330   -8.8800   32.4910 O.2   218  TYR218     -0.2864
     75  CB         9.5470   -6.3680   32.7700 C.3   218  TYR218      0.0560
     76  CG         9.8390   -4.9130   33.0120 C.ar  218  TYR218     -0.0198
     77  CD1       11.1510   -4.4710   33.1190 C.ar  218  TYR218     -0.0009
     78  CD2        8.8090   -3.9700   33.0920 C.ar  218  TYR218     -0.0009
     79  CE1       11.4470   -3.1330   33.2950 C.ar  218  TYR218      0.0417
     80  CE2        9.0930   -2.6150   33.2680 C.ar  218  TYR218      0.0417
     81  CZ        10.4220   -2.2040   33.3670 C.ar  218  TYR218      0.1957
     82  OH        10.7520   -0.8720   33.5250 O.3   218  TYR218     -0.2866
     83  N          8.4790   -5.7330   24.2990 N.3   251  SER251     -0.1217
     84  CA         9.5530   -4.7500   24.3270 C.3   251  SER251      0.1889
     85  C         10.9130   -5.3710   24.6100 C.2   251  SER251      0.2288
     86  O         11.0210   -6.3590   25.3360 O.2   251  SER251     -0.2866
     87  CB         9.2780   -3.6850   25.3810 C.3   251  SER251      0.2089
     88  OG        10.4210   -2.8730   25.5640 O.3   251  SER251     -0.2183
     89  N         13.4880   -3.0080   25.1690 N.3   253  ALA253     -0.1231
     90  CA        14.1450   -1.8220   25.7060 C.3   253  ALA253      0.1694
     91  C         14.8640   -2.1040   27.0210 C.2   253  ALA253      0.2591
     92  O         15.9840   -1.6420   27.2420 O.2   253  ALA253     -0.2718
     93  CB        13.1190   -0.7000   25.9070 C.3   253  ALA253      0.0304
     94  N         14.2180   -2.8910   27.8780 N.am  254  LYS254     -0.1980
     95  CA        14.7440   -3.2260   29.2030 C.3   254  LYS254      0.1596
     96  C         15.5530   -4.5530   29.2900 C.2   254  LYS254      0.2287
     97  O         16.7110   -4.5290   29.7040 O.2   254  LYS254     -0.2864
     98  CB        13.5840   -3.1710   30.2260 C.3   254  LYS254      0.0298
     99  CG        12.9000   -1.7410   30.3500 C.3   254  LYS254      0.0038
    100  CD        11.4500   -1.5890   29.8410 C.3   254  LYS254      0.0206
    101  CE        10.9220   -0.1720   30.1410 C.3   254  LYS254      0.1093
    102  NZ         9.3900    0.1430   30.2430 N.3   254  LYS254     -0.1314
    103  N         14.6630    1.5770   20.0790 N.3   262  ARG262     -0.1245
    104  CA        13.2400    1.3130   19.8490 C.3   262  ARG262      0.1563
    105  C         12.9650   -0.0200   19.1790 C.2   262  ARG262      0.2260
    106  O         12.3210   -0.0850   18.1320 O.2   262  ARG262     -0.2867
    107  CB        12.6080    2.4560   19.0390 C.3   262  ARG262      0.0307
    108  CG        13.1390    3.8480   19.3920 C.3   262  ARG262      0.0489
    109  CD        13.0440    4.1380   20.8770 C.3   262  ARG262      0.2205
    110  NE        11.6610    4.2560   21.3180 N.pl3 262  ARG262     -0.0865
    111  CZ        11.1490    3.6320   22.3730 C.cat 262  ARG262      0.5346
    112  NH1       11.8990    2.8310   23.1120 N.pl3 262  ARG262      0.1354
    113  NH2        9.8750    3.8050   22.6860 N.pl3 262  ARG262      0.1354
@<TRIPOS>BOND
     1   106   105    2
     2   107   108    1
     3   107   104    1
     4   105   104    1
     5   108   109    1
     6     1     2    1
     7   104   103    1
     8     4     3    2
     9   109   110    1
    10     2     3    1
    11     2     5    1
    12   110   111    2
    13    20    21    2
    14    20    19    1
    15     3     7   am
    16    14    13    2
    17    18    19    1
    18    13    12    1
    19     5     6    1
    20    19    22    1
    21   111   113    1
    22   111   112    1
    23     7     8    1
    24    10     9    2
    25    12    11    1
    26    12    15    1
    27    17    15    1
    28     9    11   am
    29     9     8    1
    30    15    16    1
    31    22    23    1
    32    83    84    1
    33    84    85    1
    34    84    87    1
    35    85    86    2
    36    23    24    1
    37    23    25    1
    38    89    90    1
    39    87    88    1
    40    90    93    1
    41    90    91    1
    42    91    92    2
    43    91    94   am
    44    64    63   ar
    45    59    58    1
    46    59    60    1
    47    59    62    1
    48    94    95    1
    49    39    38   ar
    50    39    37   ar
    51    38    36   ar
    52    60    61    2
    53    63    62    1
    54    63    65   ar
    55    67    66    1
    56    67    70    1
    57    67    68    1
    58    37    35   ar
    59    95    96    1
    60    95    98    1
    61    96    97    2
    62    36    33   ar
    63    69    68    2
    64    68    71   am
    65   100   101    1
    66   100    99    1
    67   101   102    1
    68    98    99    1
    69    35    33   ar
    70    35    34   ar
    71    71    72    1
    72    33    31   ar
    73    72    73    1
    74    72    75    1
    75    73    74    2
    76    34    32   ar
    77    31    32   ar
    78    31    30    1
    79    40    41    1
    80    30    27    1
    81    41    42    1
    82    41    44    1
    83    29    28    2
    84    75    76    1
    85    42    43    2
    86    76    78   ar
    87    76    77   ar
    88    78    80   ar
    89    77    79   ar
    90    80    81   ar
    91    79    81   ar
    92    81    82    1
    93    28    27    1
    94    27    26    1
    95    46    48   ar
    96    46    45   ar
    97    48    49   ar
    98    45    44    1
    99    45    47   ar
   100    49    47   ar
   101    57    55   am
   102    55    54    1
   103    55    56    2
   104    54    51    1
   105    53    52    2
   106    50    51    1
   107    51    52    1
