@<TRIPOS>MOLECULE
tmp/1yaaC00.pdb
 111 106 0 0 0
SMALL
GASTEIGER

@<TRIPOS>ATOM
      1  N          7.3500   11.0470   34.0430 N.3    16  LEU16      -0.1231
      2  CA         8.5730   10.2570   34.1430 C.3    16  LEU16       0.1693
      3  C          9.7640   10.9390   33.4850 C.2    16  LEU16       0.2592
      4  O         10.7990   11.1100   34.1140 O.2    16  LEU16      -0.2718
      5  CB         8.3560    8.8690   33.5320 C.3    16  LEU16       0.0284
      6  CG         7.6890    7.7470   34.3430 C.3    16  LEU16       0.0019
      7  CD1        6.7350    8.2600   35.4060 C.3    16  LEU16       0.0001
      8  CD2        6.9650    6.8220   33.3830 C.3    16  LEU16       0.0001
      9  N          9.6140   11.3320   32.2220 N.am   17  PHE17      -0.1976
     10  CA        10.6930   11.9920   31.4890 C.3    17  PHE17       0.1639
     11  C         11.0270   13.3540   32.0530 C.2    17  PHE17       0.2290
     12  O         12.1630   13.8090   31.9580 O.2    17  PHE17      -0.2864
     13  CB        10.3580   12.0940   29.9980 C.3    17  PHE17       0.0560
     14  CG        10.6750   10.8490   29.2330 C.ar   17  PHE17      -0.0200
     15  CD1        9.9890    9.6720   29.4870 C.ar   17  PHE17      -0.0042
     16  CD2       11.6980   10.8400   28.2920 C.ar   17  PHE17      -0.0042
     17  CE1       10.3150    8.4990   28.8180 C.ar   17  PHE17      -0.0003
     18  CE2       12.0340    9.6680   27.6130 C.ar   17  PHE17      -0.0003
     19  CZ        11.3410    8.4940   27.8810 C.ar   17  PHE17      -0.0000
     20  N         13.2960    6.9440   36.1790 N.3    36  ILE36      -0.1231
     21  CA        13.1050    6.1230   34.9820 C.3    36  ILE36       0.1692
     22  C         13.6790    4.7330   35.2290 C.2    36  ILE36       0.2592
     23  O         14.7710    4.5970   35.7740 O.2    36  ILE36      -0.2718
     24  CB        13.7980    6.7500   33.7350 C.3    36  ILE36       0.0266
     25  CG1       13.1410    8.0880   33.3670 C.3    36  ILE36       0.0019
     26  CG2       13.7220    5.7860   32.5330 C.3    36  ILE36       0.0020
     27  CD1       11.8650    7.9630   32.5560 C.3    36  ILE36       0.0001
     28  N         12.9220    3.7060   34.8560 N.am   37  GLY37      -0.1957
     29  CA        13.3750    2.3430   35.0510 C.3    37  GLY37       0.1869
     30  C         14.3790    1.8600   34.0270 C.2    37  GLY37       0.2309
     31  O         14.0930    0.9340   33.2740 O.2    37  GLY37      -0.2863
     32  N          5.8810    0.7080   23.2140 N.3   108  THR108     -0.1218
     33  CA         4.9510    1.8250   23.0530 C.3   108  THR108      0.1862
     34  C          4.3890    1.7720   21.6320 C.2   108  THR108      0.2287
     35  O          3.2100    2.0590   21.4180 O.2   108  THR108     -0.2866
     36  CB         5.6260    3.2050   23.2990 C.3   108  THR108      0.1770
     37  OG1        6.1710    3.2520   24.6220 O.3   108  THR108     -0.2211
     38  CG2        4.6100    4.3400   23.1560 C.3   108  THR108      0.0375
     39  N          1.2060    1.8520   34.4900 N.3   134  TRP134     -0.1241
     40  CA         2.2740    2.6110   33.8590 C.3   134  TRP134      0.1605
     41  C          1.6760    3.9470   33.4510 C.2   134  TRP134      0.2264
     42  O          0.6610    3.9930   32.7600 O.2   134  TRP134     -0.2867
     43  CB         2.7770    1.8730   32.6210 C.3   134  TRP134      0.0550
     44  CG         3.8730    2.5820   31.8910 C.ar  134  TRP134      0.0003
     45  CD1        4.9730    3.1790   32.4370 C.ar  134  TRP134      0.0946
     46  CD2        3.9960    2.7330   30.4730 C.ar  134  TRP134      0.0152
     47  NE1        5.7760    3.6850   31.4480 N.ar  134  TRP134     -0.2442
     48  CE2        5.2040    3.4260   30.2320 C.ar  134  TRP134      0.0810
     49  CE3        3.2040    2.3490   29.3820 C.ar  134  TRP134      0.0012
     50  CZ2        5.6430    3.7450   28.9410 C.ar  134  TRP134      0.0191
     51  CZ3        3.6380    2.6660   28.0990 C.ar  134  TRP134      0.0001
     52  CH2        4.8500    3.3590   27.8900 C.ar  134  TRP134      0.0015
     53  N          2.1190    6.1160   31.1960 N.3   136  ASN136     -0.1240
     54  CA         1.8240    6.4230   29.7960 C.3   136  ASN136      0.1653
     55  C          0.6930    5.6030   29.1650 C.2   136  ASN136      0.2266
     56  O          0.2290    5.9320   28.0730 O.2   136  ASN136     -0.2867
     57  CB         3.1030    6.3060   28.9560 C.3   136  ASN136      0.1155
     58  CG         3.0330    7.0900   27.6490 C.2   136  ASN136      0.2627
     59  OD1        3.5040    6.6260   26.6070 O.2   136  ASN136     -0.2716
     60  ND2        2.4780    8.2960   27.7090 N.am  136  ASN136     -0.0877
     61  N          4.7770   -2.8810   36.4130 N.3   187  ASN187     -0.1240
     62  CA         5.3310   -1.5330   36.4850 C.3   187  ASN187      0.1653
     63  C          3.9970   -0.8530   36.7930 C.2   187  ASN187      0.2266
     64  O          3.0660   -1.0450   36.0080 O.2   187  ASN187     -0.2867
     65  CB         5.8110   -1.1080   35.0880 C.3   187  ASN187      0.1155
     66  CG         6.2740    0.3310   35.0440 C.2   187  ASN187      0.2627
     67  OD1        5.6340    1.2470   35.5320 O.2   187  ASN187     -0.2716
     68  ND2        7.3980    0.5250   34.4030 N.am  187  ASN187     -0.0877
     69  N          8.9700   -6.3670   30.3920 N.3   218  TYR218     -0.1241
     70  CA         9.9450   -6.8550   31.3670 C.3   218  TYR218      0.1605
     71  C         10.1830   -8.3610   31.4320 C.2   218  TYR218      0.2264
     72  O         10.5330   -8.8800   32.4910 O.2   218  TYR218     -0.2867
     73  CB         9.5470   -6.3680   32.7700 C.3   218  TYR218      0.0534
     74  CG         9.8390   -4.9130   33.0120 C.ar  218  TYR218     -0.0201
     75  CD1       11.1510   -4.4710   33.1190 C.ar  218  TYR218     -0.0009
     76  CD2        8.8090   -3.9700   33.0920 C.ar  218  TYR218     -0.0009
     77  CE1       11.4470   -3.1330   33.2950 C.ar  218  TYR218      0.0417
     78  CE2        9.0930   -2.6150   33.2680 C.ar  218  TYR218      0.0417
     79  CZ        10.4220   -2.2040   33.3670 C.ar  218  TYR218      0.1957
     80  OH        10.7520   -0.8720   33.5250 O.3   218  TYR218     -0.2866
     81  N         14.2180   -2.8910   27.8780 N.3   254  LYS254     -0.1245
     82  CA        14.7440   -3.2260   29.2030 C.3   254  LYS254      0.1561
     83  C         15.5530   -4.5530   29.2900 C.2   254  LYS254      0.2260
     84  O         16.7110   -4.5290   29.7040 O.2   254  LYS254     -0.2867
     85  CB        13.5840   -3.1710   30.2260 C.3   254  LYS254      0.0271
     86  CG        12.9000   -1.7410   30.3500 C.3   254  LYS254      0.0035
     87  CD        11.4500   -1.5890   29.8410 C.3   254  LYS254      0.0206
     88  CE        10.9220   -0.1720   30.1410 C.3   254  LYS254      0.1093
     89  NZ         9.3900    0.1430   30.2430 N.3   254  LYS254     -0.1314
     90  N         11.2560   -2.0800   39.8120 N.3   360  PHE360     -0.1241
     91  CA        10.6970   -1.0940   40.7210 C.3   360  PHE360      0.1605
     92  C         10.2520   -1.5780   42.0910 C.2   360  PHE360      0.2264
     93  O         10.1850   -2.7750   42.3860 O.2   360  PHE360     -0.2867
     94  CB         9.5060   -0.4020   40.0580 C.3   360  PHE360      0.0534
     95  CG         9.8310    0.2290   38.7480 C.ar  360  PHE360     -0.0203
     96  CD1       10.6110    1.3740   38.6890 C.ar  360  PHE360     -0.0042
     97  CD2        9.3710   -0.3360   37.5610 C.ar  360  PHE360     -0.0042
     98  CE1       10.9340    1.9520   37.4700 C.ar  360  PHE360     -0.0003
     99  CE2        9.6870    0.2290   36.3340 C.ar  360  PHE360     -0.0003
    100  CZ        10.4690    1.3740   36.2840 C.ar  360  PHE360     -0.0000
    101  N          7.0150    5.3060   43.4590 N.3   386  ARG386     -0.1245
    102  CA         7.7150    4.2820   42.6960 C.3   386  ARG386      0.1563
    103  C          9.1980    4.6500   42.6350 C.2   386  ARG386      0.2260
    104  O          9.5540    5.8030   42.3830 O.2   386  ARG386     -0.2867
    105  CB         7.1410    4.1850   41.2750 C.3   386  ARG386      0.0307
    106  CG         7.6160    2.9530   40.4850 C.3   386  ARG386      0.0489
    107  CD         7.3280    3.0770   38.9830 C.3   386  ARG386      0.2205
    108  NE         8.2680    3.9810   38.3210 N.pl3 386  ARG386     -0.0865
    109  CZ         8.3990    4.1160   37.0030 C.cat 386  ARG386      0.5346
    110  NH1        7.6400    3.4150   36.1690 N.pl3 386  ARG386      0.1354
    111  NH2        9.3340    4.9230   36.5190 N.pl3 386  ARG386      0.1354
@<TRIPOS>BOND
     1    35    34    2
     2    34    33    1
     3    33    32    1
     4    33    36    1
     5    38    36    1
     6    36    37    1
     7    59    58    2
     8    18    19   ar
     9    18    16   ar
    10    58    60   am
    11    58    57    1
    12    81    82    1
    13    19    17   ar
    14    52    51   ar
    15    52    50   ar
    16    56    55    2
    17    51    49   ar
    18    16    14   ar
    19    17    15   ar
    20    50    48   ar
    21    57    54    1
    22    55    54    1
    23    82    83    1
    24    82    85    1
    25    14    15   ar
    26    14    13    1
    27    83    84    2
    28    49    46   ar
    29    54    53    1
    30    87    88    1
    31    87    86    1
    32    13    10    1
    33    88    89    1
    34    85    86    1
    35    48    46   ar
    36    48    47   ar
    37    69    70    1
    38    46    44   ar
    39    70    71    1
    40    70    73    1
    41    71    72    2
    42    47    45   ar
    43    10    11    1
    44    10     9    1
    45    44    45   ar
    46    44    43    1
    47    12    11    2
    48     9     3   am
    49    26    24    1
    50    27    25    1
    51    43    40    1
    52    42    41    2
    53    73    74    1
    54    74    76   ar
    55    74    75   ar
    56    76    78   ar
    57    75    77   ar
    58    78    79   ar
    59    31    30    2
    60    77    79   ar
    61    79    80    1
    62    25    24    1
    63     8     6    1
    64    41    40    1
    65     3     4    2
    66     3     2    1
    67     5     2    1
    68     5     6    1
    69    24    21    1
    70    40    39    1
    71    30    29    1
    72     1     2    1
    73     6     7    1
    74    68    66   am
    75    28    29    1
    76    28    22   am
    77    21    22    1
    78    21    20    1
    79    66    65    1
    80    66    67    2
    81    65    62    1
    82    22    23    2
    83    64    63    2
    84   110   109    1
    85   100    99   ar
    86   100    98   ar
    87    99    97   ar
    88    61    62    1
    89    62    63    1
    90   111   109    1
    91   109   108    2
    92    98    96   ar
    93    97    95   ar
    94   108   107    1
    95    96    95   ar
    96    95    94    1
    97   107   106    1
    98    90    91    1
    99    94    91    1
   100   106   105    1
   101    91    92    1
   102   105   102    1
   103    92    93    2
   104   104   103    2
   105   103   102    1
   106   102   101    1
