@<TRIPOS>MOLECULE
tmp/1yaeB01.pdb
 182 176 0 0 0
SMALL
GASTEIGER

@<TRIPOS>ATOM
      1  N        -31.7880  -11.7370   18.7320 N.3    18  GLU18      -0.1245
      2  CA       -31.0340  -12.0040   19.9570 C.3    18  GLU18       0.1567
      3  C        -31.2910  -13.4290   20.4220 C.2    18  GLU18       0.2260
      4  O        -32.4130  -13.7990   20.7460 O.2    18  GLU18      -0.2867
      5  CB       -31.3830  -10.9980   21.0660 C.3    18  GLU18       0.0388
      6  CG       -30.4600  -11.0620   22.2840 C.3    18  GLU18       0.1160
      7  CD       -29.1560  -10.3000   22.1020 C.2    18  GLU18       0.3649
      8  OE1      -29.2070   -9.1200   21.6590 O.co2  18  GLU18      -0.2457
      9  OE2      -28.0760  -10.8660   22.4160 O.co2  18  GLU18      -0.2457
     10  N        -32.6630   -1.0550   14.6550 N.3    64  GLY64      -0.1210
     11  CA       -31.8870   -2.1430   15.2530 C.3    64  GLY64       0.1956
     12  C        -31.4330   -1.9460   16.6900 C.2    64  GLY64       0.2612
     13  O        -30.4390   -2.5330   17.1160 O.2    64  GLY64      -0.2717
     14  N        -32.1730   -1.1270   17.4410 N.am   65  LYS65      -0.1965
     15  CA       -31.8890   -0.8220   18.8540 C.3    65  LYS65       0.1728
     16  C        -33.0870   -1.1920   19.7370 C.2    65  LYS65       0.2616
     17  O        -34.2170   -1.2220   19.2570 O.2    65  LYS65      -0.2715
     18  CB       -31.6280    0.6850   19.0230 C.3    65  LYS65       0.0311
     19  CG       -30.4770    1.2730   18.2020 C.3    65  LYS65       0.0038
     20  CD       -29.1610    1.1890   18.9510 C.3    65  LYS65       0.0206
     21  CE       -28.0230    1.8070   18.1680 C.3    65  LYS65       0.1093
     22  NZ       -27.5520    0.9440   17.0280 N.3    65  LYS65      -0.1314
     23  N        -32.8440   -1.4370   21.0250 N.am   66  TYR66      -0.1960
     24  CA       -33.9360   -1.7630   21.9530 C.3    66  TYR66       0.1771
     25  C        -34.7850   -0.5430   22.3100 C.2    66  TYR66       0.2620
     26  O        -36.0130   -0.5850   22.2240 O.2    66  TYR66      -0.2715
     27  CB       -33.4050   -2.4260   23.2260 C.3    66  TYR66       0.0574
     28  CG       -33.0080   -3.8630   23.0410 C.ar   66  TYR66      -0.0198
     29  CD1      -31.8480   -4.2000   22.3620 C.ar   66  TYR66      -0.0009
     30  CD2      -33.7850   -4.8890   23.5540 C.ar   66  TYR66      -0.0009
     31  CE1      -31.4770   -5.5210   22.1930 C.ar   66  TYR66       0.0417
     32  CE2      -33.4180   -6.2240   23.3940 C.ar   66  TYR66       0.0417
     33  CZ       -32.2650   -6.5250   22.7130 C.ar   66  TYR66       0.1957
     34  OH       -31.8860   -7.8300   22.5340 O.3    66  TYR66      -0.2866
     35  N        -34.1230    0.5400   22.7130 N.am   67  GLY67      -0.1940
     36  CA       -34.8010    1.7740   23.0790 C.3    67  GLY67       0.2014
     37  C        -34.1280    2.4360   24.2530 C.2    67  GLY67       0.2638
     38  O        -34.3720    2.0750   25.3970 O.2    67  GLY67      -0.2714
     39  N        -33.2500    3.3830   23.9590 N.am   68  ALA68      -0.1977
     40  CA       -32.6640    4.2490   24.9770 C.3    68  ALA68       0.1597
     41  C        -33.1430    5.6770   24.7450 C.2    68  ALA68       0.2287
     42  O        -33.5920    6.0270   23.6500 O.2    68  ALA68      -0.2864
     43  CB       -31.1380    4.1830   24.9420 C.3    68  ALA68       0.0319
     44  N        -35.3110    5.8620   20.9000 N.3    77  ASN77      -0.1240
     45  CA       -34.7530    5.3210   19.6780 C.3    77  ASN77       0.1653
     46  C        -35.1610    3.9400   19.2010 C.2    77  ASN77       0.2266
     47  O        -35.5870    3.8300   18.1030 O.2    77  ASN77      -0.2867
     48  CB       -33.2420    5.5370   19.5920 C.3    77  ASN77       0.1155
     49  CG       -32.4690    4.6680   20.5380 C.2    77  ASN77       0.2627
     50  OD1      -33.0020    4.1860   21.5290 O.2    77  ASN77      -0.2716
     51  ND2      -31.2050    4.4590   20.2370 N.am   77  ASN77      -0.0877
     52  N        -36.4290   -9.6220   24.3770 N.3    94  PRO94      -0.2102
     53  CA       -35.8590   -9.4610   25.7080 C.3    94  PRO94       0.1504
     54  C        -35.7030   -7.9730   26.0970 C.2    94  PRO94       0.2576
     55  O        -34.6030   -7.4990   26.4030 O.2    94  PRO94      -0.2718
     56  CB       -34.5140  -10.1850   25.5970 C.3    94  PRO94       0.0282
     57  CG       -34.1760  -10.0930   24.1980 C.3    94  PRO94       0.0208
     58  CD       -35.4580  -10.2380   23.4600 C.3    94  PRO94       0.0893
     59  N        -36.8260   -7.2630   26.0900 N.am   95  LEU95      -0.1966
     60  CA       -36.8920   -5.8560   26.4220 C.3    95  LEU95       0.1728
     61  C        -37.1990   -5.7170   27.9080 C.2    95  LEU95       0.2616
     62  O        -38.2990   -6.0320   28.3410 O.2    95  LEU95      -0.2715
     63  CB       -38.0280   -5.2310   25.6220 C.3    95  LEU95       0.0311
     64  CG       -37.9740   -3.8270   25.0060 C.3    95  LEU95       0.0022
     65  CD1      -39.4010   -3.3120   24.8460 C.3    95  LEU95       0.0001
     66  CD2      -37.1500   -2.8150   25.7810 C.3    95  LEU95       0.0001
     67  N        -36.2420   -5.2300   28.6880 N.am   96  ALA96      -0.1977
     68  CA       -36.4150   -5.0950   30.1350 C.3    96  ALA96       0.1597
     69  C        -37.4420   -4.0300   30.4940 C.2    96  ALA96       0.2287
     70  O        -37.4080   -2.9180   29.9580 O.2    96  ALA96      -0.2864
     71  CB       -35.0890   -4.7720   30.7960 C.3    96  ALA96       0.0319
     72  N        -38.2750    3.5010   30.7290 N.3   101  ARG101     -0.1245
     73  CA       -39.0550    3.0160   29.5980 C.3   101  ARG101      0.1563
     74  C        -40.5560    3.0420   29.8660 C.2   101  ARG101      0.2260
     75  O        -41.3460    3.3780   28.9780 O.2   101  ARG101     -0.2867
     76  CB       -38.5990    1.6210   29.1830 C.3   101  ARG101      0.0307
     77  CG       -37.4510    1.6280   28.1890 C.3   101  ARG101      0.0489
     78  CD       -36.8640    0.2650   27.9060 C.3   101  ARG101      0.2205
     79  NE       -35.4620    0.3750   27.5260 N.pl3 101  ARG101     -0.0865
     80  CZ       -34.6110   -0.6380   27.4790 C.cat 101  ARG101      0.5346
     81  NH1      -34.9980   -1.8670   27.7940 N.pl3 101  ARG101      0.1354
     82  NH2      -33.3590   -0.4200   27.1190 N.pl3 101  ARG101      0.1354
     83  N        -23.2290   -3.6470   28.8340 N.3   142  VAL142     -0.1231
     84  CA       -23.5610   -3.0660   27.5310 C.3   142  VAL142      0.1692
     85  C        -24.0850   -1.6420   27.6900 C.2   142  VAL142      0.2592
     86  O        -24.9800   -1.3780   28.4910 O.2   142  VAL142     -0.2718
     87  CB       -24.3900   -3.9870   26.5610 C.3   142  VAL142      0.0266
     88  CG1      -25.1120   -5.0830   27.2840 C.3   142  VAL142      0.0020
     89  CG2      -25.3450   -3.1790   25.7220 C.3   142  VAL142      0.0020
     90  N        -23.4650   -0.7370   26.9380 N.am  143  GLU143     -0.1966
     91  CA       -23.6830    0.7030   27.0500 C.3   143  GLU143      0.1733
     92  C        -25.1060    1.1060   26.7860 C.2   143  GLU143      0.2616
     93  O        -25.6860    0.6920   25.7950 O.2   143  GLU143     -0.2715
     94  CB       -22.8130    1.4500   26.0530 C.3   143  GLU143      0.0429
     95  CG       -21.7390    2.3070   26.6910 C.3   143  GLU143      0.1163
     96  CD       -21.4170    3.5440   25.8840 C.2   143  GLU143      0.3649
     97  OE1      -21.7530    3.5880   24.6880 O.co2 143  GLU143     -0.2457
     98  OE2      -20.8320    4.4830   26.4500 O.co2 143  GLU143     -0.2457
     99  N        -25.6420    1.9440   27.6680 N.am  144  ASP144     -0.1957
    100  CA       -27.0200    2.4570   27.5910 C.3   144  ASP144      0.1840
    101  C        -28.1080    1.3900   27.6420 C.2   144  ASP144      0.2623
    102  O        -29.2460    1.6370   27.2530 O.2   144  ASP144     -0.2715
    103  CB       -27.2310    3.3400   26.3610 C.3   144  ASP144      0.1450
    104  CG       -26.4270    4.6120   26.4050 C.2   144  ASP144      0.3671
    105  OD1      -25.9820    5.0200   27.5020 O.co2 144  ASP144     -0.2456
    106  OD2      -26.1970    5.2820   25.3730 O.co2 144  ASP144     -0.2456
    107  N        -27.7610    0.2050   28.1220 N.am  145  GLY145     -0.1940
    108  CA       -28.7500   -0.8490   28.3170 C.3   145  GLY145      0.2014
    109  C        -29.3160   -0.7910   29.7200 C.2   145  GLY145      0.2639
    110  O        -28.8500   -0.0070   30.5480 O.2   145  GLY145     -0.2714
    111  N        -30.3180   -1.6220   29.9900 N.am  146  ALA146     -0.1963
    112  CA       -30.9320   -1.6920   31.3110 C.3   146  ALA146      0.1728
    113  C        -29.9220   -2.0230   32.4080 C.2   146  ALA146      0.2616
    114  O        -30.0080   -1.5090   33.5230 O.2   146  ALA146     -0.2715
    115  CB       -32.0500   -2.6960   31.3170 C.3   146  ALA146      0.0334
    116  N        -28.9630   -2.8750   32.0830 N.am  147  THR147     -0.1951
    117  CA       -27.9360   -3.2440   33.0260 C.3   147  THR147      0.1897
    118  C        -27.1120   -2.0450   33.4540 C.2   147  THR147      0.2313
    119  O        -26.9440   -1.8230   34.6460 O.2   147  THR147     -0.2863
    120  CB       -27.0870   -4.3520   32.4270 C.3   147  THR147      0.1794
    121  OG1      -27.9150   -5.5060   32.2540 O.3   147  THR147     -0.2208
    122  CG2      -26.0270   -4.8240   33.4040 C.3   147  THR147      0.0378
    123  N        -20.6900   -3.0050   23.4430 N.3   176  LYS176     -0.1231
    124  CA       -21.8240   -2.5910   22.6050 C.3   176  LYS176      0.1693
    125  C        -22.9320   -3.6310   22.4420 C.2   176  LYS176      0.2593
    126  O        -24.0380   -3.2970   22.0210 O.2   176  LYS176     -0.2718
    127  CB       -21.3360   -2.2030   21.2180 C.3   176  LYS176      0.0285
    128  CG       -21.0450   -0.7450   21.0330 C.3   176  LYS176      0.0035
    129  CD       -20.7090   -0.4700   19.5770 C.3   176  LYS176      0.0206
    130  CE       -19.2700   -0.8280   19.2530 C.3   176  LYS176      0.1093
    131  NZ       -18.3230    0.0740   19.9680 N.3   176  LYS176     -0.1314
    132  N        -22.6240   -4.8880   22.7490 N.am  177  SER177     -0.1938
    133  CA       -23.5840   -5.9780   22.6340 C.3   177  SER177      0.2055
    134  C        -23.1720   -7.1840   23.4710 C.2   177  SER177      0.2643
    135  O        -22.0400   -7.2730   23.9310 O.2   177  SER177     -0.2714
    136  CB       -23.7270   -6.3950   21.1800 C.3   177  SER177      0.2130
    137  OG       -22.4960   -6.8970   20.7030 O.3   177  SER177     -0.2179
    138  N        -24.0980   -8.1160   23.6560 N.am  178  ASN178     -0.1971
    139  CA       -23.8340   -9.2930   24.4640 C.3   178  ASN178      0.1688
    140  C        -22.6550  -10.1070   23.9350 C.2   178  ASN178      0.2292
    141  O        -21.7840  -10.5060   24.7100 O.2   178  ASN178     -0.2864
    142  CB       -25.0860  -10.1680   24.5860 C.3   178  ASN178      0.1181
    143  CG       -25.9240   -9.8550   25.8260 C.2   178  ASN178      0.2629
    144  OD1      -25.4540   -9.2870   26.8150 O.2   178  ASN178     -0.2716
    145  ND2      -27.1790  -10.2600   25.7760 N.am  178  ASN178     -0.0877
    146  N        -21.0640   -7.8270   33.2000 N.3   193  LEU193     -0.1231
    147  CA       -22.3340   -7.6620   33.8930 C.3   193  LEU193      0.1693
    148  C        -23.4770   -7.8280   32.9070 C.2   193  LEU193      0.2592
    149  O        -23.8170   -6.9100   32.1670 O.2   193  LEU193     -0.2718
    150  CB       -22.4090   -6.3120   34.5940 C.3   193  LEU193      0.0284
    151  CG       -21.3810   -6.0160   35.6810 C.3   193  LEU193      0.0019
    152  CD1      -21.3220   -4.5330   35.9150 C.3   193  LEU193      0.0001
    153  CD2      -21.7270   -6.7210   36.9540 C.3   193  LEU193      0.0001
    154  N        -24.0660   -9.0160   32.9210 N.am  194  MET194     -0.1965
    155  CA       -25.0330   -9.4420   31.9260 C.3   194  MET194      0.1736
    156  C        -26.2870   -9.9870   32.6120 C.2   194  MET194      0.2616
    157  O        -26.2370  -10.3640   33.7750 O.2   194  MET194     -0.2715
    158  CB       -24.3460  -10.5010   31.0650 C.3   194  MET194      0.0427
    159  CG       -25.2220  -11.3600   30.2190 C.3   194  MET194      0.0599
    160  SD       -24.2640  -12.2170   28.9700 S.3   194  MET194     -0.1393
    161  CE       -23.6890  -13.6450   29.8350 C.3   194  MET194      0.0692
    162  N        -27.4090  -10.0080   31.8970 N.am  195  GLU195     -0.1977
    163  CA       -28.6830  -10.4810   32.4420 C.3   195  GLU195      0.1602
    164  C        -28.6780  -11.9850   32.6610 C.2   195  GLU195      0.2287
    165  O        -28.3840  -12.7420   31.7400 O.2   195  GLU195     -0.2864
    166  CB       -29.8440  -10.0710   31.5330 C.3   195  GLU195      0.0415
    167  CG       -30.2890   -8.6280   31.7240 C.3   195  GLU195      0.1163
    168  CD       -30.9590   -8.0520   30.4990 C.2   195  GLU195      0.3649
    169  OE1      -30.3920   -8.1870   29.4040 O.co2 195  GLU195     -0.2457
    170  OE2      -32.0460   -7.4600   30.6190 O.co2 195  GLU195     -0.2457
    171  N        -38.6840   -9.2830   31.6520 N.3   221  TYR221     -0.1241
    172  CA       -39.0010   -8.8700   30.2730 C.3   221  TYR221      0.1605
    173  C        -40.5030   -8.9130   30.0420 C.2   221  TYR221      0.2264
    174  O        -41.1450   -9.9130   30.3500 O.2   221  TYR221     -0.2867
    175  CB       -38.3750   -9.8010   29.2300 C.3   221  TYR221      0.0534
    176  CG       -36.8720  -10.0020   29.2530 C.ar  221  TYR221     -0.0201
    177  CD1      -35.9870   -8.9290   29.3740 C.ar  221  TYR221     -0.0009
    178  CD2      -36.3350  -11.2790   29.0840 C.ar  221  TYR221     -0.0009
    179  CE1      -34.6110   -9.1380   29.3650 C.ar  221  TYR221      0.0417
    180  CE2      -34.9730  -11.4900   29.0730 C.ar  221  TYR221      0.0417
    181  CZ       -34.1180  -10.4250   29.2130 C.ar  221  TYR221      0.1957
    182  OH       -32.7630  -10.6520   29.1930 O.3   221  TYR221     -0.2866
@<TRIPOS>BOND
     1    10    11    1
     2    11    12    1
     3    12    13    2
     4    12    14   am
     5    22    21    1
     6    14    15    1
     7    47    46    2
     8    21    20    1
     9    19    20    1
    10    19    18    1
    11     1     2    1
    12    15    18    1
    13    15    16    1
    14    46    45    1
    15   130   129    1
    16   130   131    1
    17    17    16    2
    18   129   128    1
    19    48    45    1
    20    48    49    1
    21    45    44    1
    22    16    23   am
    23     2     3    1
    24     2     5    1
    25    51    49   am
    26     3     4    2
    27    49    50    2
    28   137   136    1
    29    23    24    1
    30   128   127    1
    31     5     6    1
    32   136   133    1
    33   127   124    1
    34     8     7   ar
    35    24    25    1
    36    24    27    1
    37   126   125    2
    38     7     6    1
    39     7     9   ar
    40    31    29   ar
    41    31    33   ar
    42    26    25    2
    43    25    35   am
    44    29    28   ar
    45   125   124    1
    46   125   132   am
    47    34    33    1
    48   124   123    1
    49   133   132    1
    50   133   134    1
    51    35    36    1
    52    33    32   ar
    53    28    27    1
    54    28    30   ar
    55    36    37    1
    56    32    30   ar
    57    58    57    1
    58    58    52    1
    59   134   138   am
    60   134   135    2
    61    42    41    2
    62   138   139    1
    63   140   139    1
    64   140   141    2
    65    39    37   am
    66    39    40    1
    67    57    56    1
    68    37    38    2
    69    52    53    1
    70   139   142    1
    71   142   143    1
    72    97    96   ar
    73    41    40    1
    74    65    64    1
    75    43    40    1
    76    64    63    1
    77    64    66    1
    78   106   104   ar
    79    56    53    1
    80    63    60    1
    81    53    54    1
    82    89    87    1
    83   145   143   am
    84    93    92    2
    85   143   144    2
    86    96    98   ar
    87    96    95    1
    88    94    95    1
    89    94    91    1
    90    59    54   am
    91    59    60    1
    92    54    55    2
    93   103   104    1
    94   103   100    1
    95   104   105   ar
    96    60    61    1
    97    87    88    1
    98    87    84    1
    99    92    91    1
   100    92    99   am
   101    90    91    1
   102    90    85   am
   103    82    80    1
   104   102   101    2
   105    80    79    2
   106    80    81    1
   107    79    78    1
   108    84    85    1
   109    84    83    1
   110   100   101    1
   111   100    99    1
   112   101   107   am
   113    85    86    2
   114    78    77    1
   115    61    62    2
   116    61    67   am
   117   107   108    1
   118    77    76    1
   119   108   109    1
   120    67    68    1
   121   160   161    1
   122   160   159    1
   123    75    74    2
   124   180   178   ar
   125   180   181   ar
   126   178   176   ar
   127    76    73    1
   128   182   181    1
   129   181   179   ar
   130   175   176    1
   131   175   172    1
   132   176   177   ar
   133   179   177   ar
   134   169   168   ar
   135    73    74    1
   136    73    72    1
   137   109   111   am
   138   109   110    2
   139    70    69    2
   140   111   112    1
   141   173   172    1
   142   173   174    2
   143    68    69    1
   144    68    71    1
   145   159   158    1
   146   172   171    1
   147   168   170   ar
   148   168   167    1
   149   158   155    1
   150   112   115    1
   151   112   113    1
   152   166   167    1
   153   166   163    1
   154   165   164    2
   155   162   163    1
   156   162   156   am
   157   155   156    1
   158   155   154    1
   159   116   113   am
   160   116   117    1
   161   149   148    2
   162   121   120    1
   163   113   114    2
   164   120   117    1
   165   120   122    1
   166   163   164    1
   167   156   157    2
   168   148   154   am
   169   148   147    1
   170   117   118    1
   171   146   147    1
   172   118   119    2
   173   147   150    1
   174   150   151    1
   175   151   152    1
   176   151   153    1
