@<TRIPOS>MOLECULE
tmp/1yaeF00.pdb
 185 178 0 0 0
SMALL
GASTEIGER

@<TRIPOS>ATOM
      1  N        -13.8080   13.7100   46.1630 N.3    18  GLU18      -0.1245
      2  CA       -12.5980   14.4960   46.3850 C.3    18  GLU18       0.1567
      3  C        -12.2630   14.5130   47.8720 C.2    18  GLU18       0.2260
      4  O        -13.0230   15.0910   48.6740 O.2    18  GLU18      -0.2867
      5  CB       -12.8190   15.9300   45.9050 C.3    18  GLU18       0.0388
      6  CG       -11.5410   16.7290   45.8110 C.3    18  GLU18       0.1160
      7  CD       -10.6650   16.2530   44.6730 C.2    18  GLU18       0.3649
      8  OE1      -11.0130   16.5310   43.4980 O.co2  18  GLU18      -0.2457
      9  OE2       -9.6320   15.6010   44.9550 O.co2  18  GLU18      -0.2457
     10  N        -17.1750   16.0870   36.2830 N.3    65  LYS65      -0.1231
     11  CA       -16.3250   17.2830   36.3970 C.3    65  LYS65       0.1693
     12  C        -16.9890   18.4540   37.1480 C.2    65  LYS65       0.2592
     13  O        -18.2080   18.4530   37.3940 O.2    65  LYS65      -0.2718
     14  CB       -15.6750   17.6780   35.0600 C.3    65  LYS65       0.0285
     15  CG       -14.4710   16.7960   34.7210 C.3    65  LYS65       0.0035
     16  CD       -13.6240   17.2970   33.5500 C.3    65  LYS65       0.0206
     17  CE       -14.3790   17.3560   32.2110 C.3    65  LYS65       0.1093
     18  NZ       -15.2220   16.1600   31.9300 N.3    65  LYS65      -0.1314
     19  N        -16.1370   19.3960   37.5760 N.am   66  TYR66      -0.1962
     20  CA       -16.6170   20.5200   38.4060 C.3    66  TYR66       0.1771
     21  C        -17.4220   21.4230   37.5110 C.2    66  TYR66       0.2620
     22  O        -18.6310   21.5980   37.6990 O.2    66  TYR66      -0.2715
     23  CB       -15.4480   21.2080   39.0680 C.3    66  TYR66       0.0574
     24  CG       -14.9020   20.4380   40.2490 C.ar   66  TYR66      -0.0198
     25  CD1      -14.0400   19.3550   40.0620 C.ar   66  TYR66      -0.0009
     26  CD2      -15.2410   20.7950   41.5540 C.ar   66  TYR66      -0.0009
     27  CE1      -13.5330   18.6400   41.1460 C.ar   66  TYR66       0.0417
     28  CE2      -14.7380   20.0910   42.6470 C.ar   66  TYR66       0.0417
     29  CZ       -13.8800   19.0110   42.4350 C.ar   66  TYR66       0.1957
     30  OH       -13.3720   18.3090   43.5080 O.3    66  TYR66      -0.2866
     31  N        -16.7870   21.9520   36.4860 N.am   67  GLY67      -0.1940
     32  CA       -17.5590   22.7490   35.5860 C.3    67  GLY67       0.2014
     33  C        -16.8340   23.9160   34.8810 C.2    67  GLY67       0.2638
     34  O        -16.8940   25.0570   35.3420 O.2    67  GLY67      -0.2714
     35  N        -16.1490   23.6560   33.7510 N.am   68  ALA68      -0.1977
     36  CA       -15.5050   24.7130   32.9740 C.3    68  ALA68       0.1597
     37  C        -16.4070   25.0490   31.7840 C.2    68  ALA68       0.2287
     38  O        -17.3280   24.3150   31.4580 O.2    68  ALA68      -0.2864
     39  CB       -14.1310   24.2950   32.5000 C.3    68  ALA68       0.0319
     40  N        -19.8640   22.5610   31.7250 N.3    77  ASN77      -0.1240
     41  CA       -19.9660   21.1080   31.9890 C.3    77  ASN77       0.1653
     42  C        -20.0450   20.8100   33.4630 C.2    77  ASN77       0.2266
     43  O        -19.9160   21.6850   34.3160 O.2    77  ASN77      -0.2867
     44  CB       -18.8820   20.2930   31.2670 C.3    77  ASN77       0.1155
     45  CG       -17.4660   20.4770   31.7810 C.2    77  ASN77       0.2627
     46  OD1      -16.8610   19.5580   32.3370 O.2    77  ASN77      -0.2716
     47  ND2      -16.9140   21.6620   31.5940 N.am   77  ASN77      -0.0877
     48  N        -15.8890   21.0540   46.8950 N.3    90  PRO90      -0.2102
     49  CA       -14.8250   22.0560   46.8260 C.3    90  PRO90       0.1504
     50  C        -14.8470   22.7980   45.4880 C.2    90  PRO90       0.2576
     51  O        -13.8590   22.8020   44.7450 O.2    90  PRO90      -0.2718
     52  CB       -13.5420   21.2360   47.0150 C.3    90  PRO90       0.0282
     53  CG       -13.9110   19.8260   46.6360 C.3    90  PRO90       0.0208
     54  CD       -15.3630   19.6760   46.9750 C.3    90  PRO90       0.0893
     55  N        -15.9900   23.4290   45.2230 N.am   91  LEU91      -0.1966
     56  CA       -16.2520   24.2130   44.0270 C.3    91  LEU91       0.1728
     57  C        -15.8890   25.6690   44.2950 C.2    91  LEU91       0.2616
     58  O        -16.5460   26.3370   45.0960 O.2    91  LEU91      -0.2715
     59  CB       -17.7430   24.1060   43.7180 C.3    91  LEU91       0.0311
     60  CG       -18.2570   24.3210   42.2980 C.3    91  LEU91       0.0022
     61  CD1      -18.2320   25.7780   41.9180 C.3    91  LEU91       0.0001
     62  CD2      -17.4640   23.4810   41.3040 C.3    91  LEU91       0.0001
     63  N        -14.8450   26.1590   43.6360 N.am   92  ALA92      -0.1977
     64  CA       -14.3750   27.5280   43.8510 C.3    92  ALA92       0.1597
     65  C        -15.3500   28.5650   43.2720 C.2    92  ALA92       0.2287
     66  O        -15.7890   28.4220   42.1160 O.2    92  ALA92      -0.2864
     67  CB       -12.9790   27.7050   43.2530 C.3    92  ALA92       0.0319
     68  N        -17.7530   31.4640   36.6580 N.3    97  ARG97      -0.1245
     69  CA       -18.8010   30.5950   37.1850 C.3    97  ARG97       0.1563
     70  C        -20.0060   31.3890   37.7330 C.2    97  ARG97       0.2260
     71  O        -21.1770   31.0140   37.5090 O.2    97  ARG97      -0.2867
     72  CB       -18.2320   29.6110   38.2200 C.3    97  ARG97       0.0307
     73  CG       -17.8000   28.2660   37.6100 C.3    97  ARG97       0.0489
     74  CD       -17.1290   27.2860   38.5890 C.3    97  ARG97       0.2205
     75  NE       -15.6810   27.1450   38.3740 N.pl3  97  ARG97      -0.0865
     76  CZ       -14.8730   26.3380   39.0760 C.cat  97  ARG97       0.5346
     77  NH1      -15.3400   25.5830   40.0640 N.pl3  97  ARG97       0.1354
     78  NH2      -13.5810   26.2870   38.7900 N.pl3  97  ARG97       0.1354
     79  N         -3.8650   22.1250   37.7050 N.3   121  VAL121     -0.1231
     80  CA        -4.8780   21.2860   37.0710 C.3   121  VAL121      0.1692
     81  C         -5.5290   22.0850   35.9440 C.2   121  VAL121      0.2592
     82  O         -6.0230   23.1980   36.1580 O.2   121  VAL121     -0.2718
     83  CB        -5.9310   20.7390   38.0630 C.3   121  VAL121      0.0266
     84  CG1       -6.9730   19.8950   37.3310 C.3   121  VAL121      0.0020
     85  CG2       -5.2670   19.9190   39.1540 C.3   121  VAL121      0.0020
     86  N         -5.5120   21.5170   34.7410 N.am  122  GLU122     -0.1966
     87  CA        -5.9820   22.2640   33.5760 C.3   122  GLU122      0.1733
     88  C         -7.4780   22.5500   33.5560 C.2   122  GLU122      0.2616
     89  O         -8.3030   21.7080   33.9360 O.2   122  GLU122     -0.2715
     90  CB        -5.4420   21.7380   32.2420 C.3   122  GLU122      0.0429
     91  CG        -5.9900   20.4110   31.7530 C.3   122  GLU122      0.1163
     92  CD        -5.2850   19.9500   30.4900 C.2   122  GLU122      0.3649
     93  OE1       -4.1110   20.3540   30.2690 O.co2 122  GLU122     -0.2457
     94  OE2       -5.9080   19.1820   29.7210 O.co2 122  GLU122     -0.2457
     95  N         -7.7810   23.7760   33.1340 N.am  123  ASP123     -0.1957
     96  CA        -9.1240   24.3650   33.1160 C.3   123  ASP123      0.1840
     97  C         -9.8020   24.4400   34.4910 C.2   123  ASP123      0.2623
     98  O        -11.0310   24.5810   34.5790 O.2   123  ASP123     -0.2715
     99  CB       -10.0280   23.6930   32.0740 C.3   123  ASP123      0.1450
    100  CG        -9.4160   23.6900   30.6800 C.2   123  ASP123      0.3671
    101  OD1       -8.2130   23.3610   30.5470 O.co2 123  ASP123     -0.2456
    102  OD2      -10.0700   23.9870   29.6540 O.co2 123  ASP123     -0.2456
    103  N         -8.9910   24.3520   35.5510 N.am  124  GLY124     -0.1940
    104  CA        -9.4660   24.5280   36.9300 C.3   124  GLY124      0.2014
    105  C         -9.3440   25.9790   37.3610 C.2   124  GLY124      0.2639
    106  O         -8.7260   26.7960   36.6660 O.2   124  GLY124     -0.2714
    107  N         -9.9380   26.3120   38.5020 N.am  125  ALA125     -0.1963
    108  CA        -9.8950   27.6860   38.9920 C.3   125  ALA125      0.1728
    109  C         -8.4470   28.1790   39.1620 C.2   125  ALA125      0.2616
    110  O         -8.1500   29.3510   38.8690 O.2   125  ALA125     -0.2715
    111  CB       -10.6750   27.8240   40.2820 C.3   125  ALA125      0.0334
    112  N         -7.5580   27.2820   39.6090 N.am  126  THR126     -0.1951
    113  CA        -6.1380   27.6050   39.7410 C.3   126  THR126      0.1897
    114  C         -5.5950   28.0790   38.4010 C.2   126  THR126      0.2313
    115  O         -5.0150   29.1710   38.3180 O.2   126  THR126     -0.2863
    116  CB        -5.3140   26.4050   40.2950 C.3   126  THR126      0.1794
    117  OG1       -5.5790   26.2460   41.6940 O.3   126  THR126     -0.2208
    118  CG2       -3.8190   26.7090   40.2840 C.3   126  THR126      0.0378
    119  N         -4.1760   16.6430   35.1980 N.3   145  LYS145     -0.1231
    120  CA        -5.6320   16.4280   35.0550 C.3   145  LYS145      0.1693
    121  C         -6.4340   16.3640   36.3810 C.2   145  LYS145      0.2593
    122  O         -7.6640   16.5230   36.3800 O.2   145  LYS145     -0.2718
    123  CB        -5.9040   15.1610   34.2260 C.3   145  LYS145      0.0285
    124  CG        -5.4530   15.2170   32.7690 C.3   145  LYS145      0.0035
    125  CD        -6.5250   15.8190   31.8710 C.3   145  LYS145      0.0206
    126  CE        -6.0670   15.8910   30.4220 C.3   145  LYS145      0.1093
    127  NZ        -6.2020   14.5900   29.7250 N.3   145  LYS145     -0.1314
    128  N         -5.7400   16.1220   37.4930 N.am  146  SER146     -0.1938
    129  CA        -6.3680   16.0130   38.8070 C.3   146  SER146      0.2055
    130  C         -5.3680   16.2610   39.9340 C.2   146  SER146      0.2643
    131  O         -4.1570   16.2290   39.7290 O.2   146  SER146     -0.2714
    132  CB        -6.9470   14.6170   38.9930 C.3   146  SER146      0.2130
    133  OG        -5.9350   13.7020   39.3930 O.3   146  SER146     -0.2179
    134  N         -5.8770   16.4720   41.1370 N.am  147  ASN147     -0.1971
    135  CA        -5.0150   16.7010   42.2840 C.3   147  ASN147      0.1688
    136  C         -4.0130   15.5670   42.5150 C.2   147  ASN147      0.2292
    137  O         -2.8140   15.8300   42.6650 O.2   147  ASN147     -0.2864
    138  CB        -5.8340   16.9990   43.5500 C.3   147  ASN147      0.1181
    139  CG        -6.1990   18.4790   43.6850 C.2   147  ASN147      0.2629
    140  OD1       -6.6940   19.1050   42.7410 O.2   147  ASN147     -0.2716
    141  ND2       -5.9610   19.0390   44.8660 N.am  147  ASN147     -0.0877
    142  N          0.9490   23.8820   41.6180 N.3   162  LEU162     -0.1231
    143  CA         0.0660   24.9750   42.0080 C.3   162  LEU162      0.1693
    144  C         -1.3070   24.4240   42.3680 C.2   162  LEU162      0.2592
    145  O         -2.1490   24.1890   41.4790 O.2   162  LEU162     -0.2718
    146  CB        -0.0710   26.0210   40.8860 C.3   162  LEU162      0.0284
    147  CG         1.1070   26.9590   40.6130 C.3   162  LEU162      0.0019
    148  CD1        0.9890   27.5110   39.2080 C.3   162  LEU162      0.0001
    149  CD2        1.1920   28.0760   41.6440 C.3   162  LEU162      0.0001
    150  N         -1.5230   24.2050   43.6630 N.am  163  MET163     -0.1965
    151  CA        -2.8320   23.7520   44.1160 C.3   163  MET163      0.1736
    152  C         -3.3940   24.5610   45.2890 C.2   163  MET163      0.2616
    153  O         -2.6840   25.3570   45.9180 O.2   163  MET163     -0.2715
    154  CB        -2.8430   22.2480   44.3940 C.3   163  MET163      0.0427
    155  CG        -2.9570   21.8740   45.8480 C.3   163  MET163      0.0599
    156  SD        -1.8780   20.4970   46.1620 S.3   163  MET163     -0.1393
    157  CE        -0.3560   21.2570   45.5960 C.3   163  MET163      0.0692
    158  N         -4.6840   24.3630   45.5530 N.am  164  GLU164     -0.1977
    159  CA        -5.4010   25.1260   46.5650 C.3   164  GLU164      0.1602
    160  C         -4.9230   24.8230   47.9870 C.2   164  GLU164      0.2287
    161  O         -4.8870   23.6620   48.4200 O.2   164  GLU164     -0.2864
    162  CB        -6.8970   24.9080   46.4160 C.3   164  GLU164      0.0415
    163  CG        -7.4060   25.3500   45.0520 C.3   164  GLU164      0.1163
    164  CD        -8.8960   25.1280   44.8770 C.2   164  GLU164      0.3649
    165  OE1       -9.4100   24.0480   45.3040 O.co2 164  GLU164     -0.2457
    166  OE2       -9.5430   26.0380   44.3020 O.co2 164  GLU164     -0.2457
    167  N         -6.3750   22.1420   50.1680 N.3   167  THR167     -0.1218
    168  CA        -6.0310   20.7620   49.8330 C.3   167  THR167      0.1862
    169  C         -4.5660   20.4370   50.1560 C.2   167  THR167      0.2287
    170  O         -4.2480   19.2870   50.5030 O.2   167  THR167     -0.2866
    171  CB        -6.3640   20.4500   48.3370 C.3   167  THR167      0.1770
    172  OG1       -5.8300   21.4710   47.4840 O.3   167  THR167     -0.2211
    173  CG2       -7.8720   20.5320   48.0660 C.3   167  THR167      0.0375
    174  N        -14.8390   28.8410   48.8360 N.3   190  TYR190     -0.1241
    175  CA       -15.6540   27.8570   48.0970 C.3   190  TYR190      0.1605
    176  C        -17.0700   28.3850   47.9840 C.2   190  TYR190      0.2264
    177  O        -17.2870   29.4020   47.3350 O.2   190  TYR190     -0.2867
    178  CB       -15.5960   26.4330   48.6950 C.3   190  TYR190      0.0534
    179  CG       -14.2950   25.7020   48.4000 C.ar  190  TYR190     -0.0201
    180  CD1      -13.7000   25.7710   47.1280 C.ar  190  TYR190     -0.0009
    181  CD2      -13.6580   24.9380   49.3880 C.ar  190  TYR190     -0.0009
    182  CE1      -12.5060   25.1110   46.8580 C.ar  190  TYR190      0.0417
    183  CE2      -12.4640   24.2600   49.1210 C.ar  190  TYR190      0.0417
    184  CZ       -11.9000   24.3620   47.8610 C.ar  190  TYR190      0.1957
    185  OH       -10.7290   23.7110   47.5930 O.3   190  TYR190     -0.2866
@<TRIPOS>BOND
     1   102   100   ar
     2    94    92   ar
     3   127   126    1
     4    93    92   ar
     5   126   125    1
     6    92    91    1
     7   101   100   ar
     8   100    99    1
     9    44    45    1
    10    44    41    1
    11    38    37    2
    12    47    45   am
    13    40    41    1
    14    91    90    1
    15    45    46    2
    16    37    36    1
    17   125   124    1
    18    18    17    1
    19    41    42    1
    20    99    96    1
    21    17    16    1
    22    90    87    1
    23    39    36    1
    24   124   123    1
    25    36    35    1
    26    96    95    1
    27    96    97    1
    28    95    88   am
    29    42    43    2
    30    16    15    1
    31    88    87    1
    32    88    89    2
    33    87    86    1
    34    35    33   am
    35   123   120    1
    36    97    98    2
    37    97   103   am
    38    15    14    1
    39    86    81   am
    40    33    34    2
    41    33    32    1
    42   120   119    1
    43   120   121    1
    44    14    11    1
    45   103   104    1
    46    32    31    1
    47    81    82    2
    48    81    80    1
    49    10    11    1
    50   122   121    2
    51   121   128   am
    52    11    12    1
    53    31    21   am
    54    68    69    1
    55   106   105    2
    56   104   105    1
    57    80    79    1
    58    80    83    1
    59    12    13    2
    60    12    19   am
    61    69    70    1
    62    69    72    1
    63    84    83    1
    64   105   107   am
    65   128   129    1
    66    71    70    2
    67    21    22    2
    68    21    20    1
    69    19    20    1
    70    73    72    1
    71    73    74    1
    72    83    85    1
    73   115   114    2
    74    75    74    1
    75    75    76    2
    76   114   113    1
    77    20    23    1
    78   107   108    1
    79    78    76    1
    80   129   132    1
    81   129   130    1
    82   110   109    2
    83   108   109    1
    84   108   111    1
    85   132   133    1
    86    23    24    1
    87    76    77    1
    88   109   112   am
    89   148   147    1
    90   112   113    1
    91   131   130    2
    92   113   116    1
    93   130   134   am
    94    25    24   ar
    95    25    27   ar
    96    24    26   ar
    97   118   116    1
    98   116   117    1
    99   147   146    1
   100   147   149    1
   101   146   143    1
   102   134   135    1
   103    27    29   ar
   104    62    60    1
   105   145   144    2
   106    26    28   ar
   107   142   143    1
   108    61    60    1
   109   143   144    1
   110    66    65    2
   111   135   136    1
   112   135   138    1
   113    60    59    1
   114   144   150   am
   115    29    28   ar
   116    29    30    1
   117   136   137    2
   118   140   139    2
   119    67    64    1
   120    65    64    1
   121     8     7   ar
   122   138   139    1
   123    63    64    1
   124    63    57   am
   125   150   151    1
   126   139   141   am
   127    59    56    1
   128    56    57    1
   129    56    55    1
   130   151   154    1
   131   151   152    1
   132    57    58    2
   133   166   164   ar
   134   154   155    1
   135     7     9   ar
   136     7     6    1
   137    51    50    2
   138   164   163    1
   139   164   165   ar
   140   163   162    1
   141    55    50   am
   142   152   158   am
   143   152   153    2
   144    50    49    1
   145   158   159    1
   146   157   156    1
   147     6     5    1
   148   155   156    1
   149     5     2    1
   150     1     2    1
   151     2     3    1
   152   162   159    1
   153   159   160    1
   154    53    54    1
   155    53    52    1
   156    49    48    1
   157    49    52    1
   158   182   180   ar
   159   182   184   ar
   160    48    54    1
   161   180   179   ar
   162   177   176    2
   163   172   171    1
   164   185   184    1
   165   184   183   ar
   166     3     4    2
   167   176   175    1
   168   160   161    2
   169   173   171    1
   170   175   178    1
   171   175   174    1
   172   171   168    1
   173   179   178    1
   174   179   181   ar
   175   183   181   ar
   176   168   169    1
   177   168   167    1
   178   169   170    2
