@<TRIPOS>MOLECULE
tmp/1yahC01.pdb
 100 100 0 0 0
SMALL
GASTEIGER

@<TRIPOS>ATOM
      1  N         20.3170    6.8220   36.2550 N.3    31  LEU31      -0.1231
      2  CA        21.1250    7.2730   37.3790 C.3    31  LEU31       0.1693
      3  C         20.3490    7.9870   38.4800 C.2    31  LEU31       0.2592
      4  O         19.5930    8.9320   38.2250 O.2    31  LEU31      -0.2718
      5  CB        22.2480    8.1730   36.8570 C.3    31  LEU31       0.0284
      6  CG        23.1390    7.5680   35.7600 C.3    31  LEU31       0.0019
      7  CD1       24.0770    8.6350   35.2290 C.3    31  LEU31       0.0001
      8  CD2       23.9220    6.3790   36.3090 C.3    31  LEU31       0.0001
      9  N         20.5350    7.5140   39.7080 N.am   32  GLY32      -0.1957
     10  CA        19.8680    8.1270   40.8400 C.3    32  GLY32       0.1869
     11  C         18.3740    7.8910   40.9740 C.2    32  GLY32       0.2309
     12  O         17.5850    8.8400   41.0370 O.2    32  GLY32      -0.2863
     13  N         15.5470    6.9950   43.2840 N.3    34  PRO34      -0.2116
     14  CA        15.2810    6.9300   44.7200 C.3    34  PRO34       0.1372
     15  C         14.5650    5.6400   45.0910 C.2    34  PRO34       0.2244
     16  O         13.5680    5.2810   44.4580 O.2    34  PRO34      -0.2868
     17  CB        14.4030    8.1480   44.9520 C.3    34  PRO34       0.0268
     18  CG        13.6490    8.2430   43.6680 C.3    34  PRO34       0.0207
     19  CD        14.7570    8.0670   42.6640 C.3    34  PRO34       0.0892
     20  N         10.4370   11.3900   35.9010 N.3    58  LYS58      -0.1231
     21  CA        11.6180   11.7750   36.6670 C.3    58  LYS58       0.1693
     22  C         12.9210   11.4880   35.9260 C.2    58  LYS58       0.2592
     23  O         13.1750   10.3520   35.5390 O.2    58  LYS58      -0.2718
     24  CB        11.6360   11.0450   38.0120 C.3    58  LYS58       0.0285
     25  CG        12.8410   11.3950   38.8740 C.3    58  LYS58       0.0035
     26  CD        12.8510   10.6360   40.1810 C.3    58  LYS58       0.0206
     27  CE        11.7640   11.1070   41.1310 C.3    58  LYS58       0.1093
     28  NZ        11.9470   12.5190   41.5520 N.3    58  LYS58      -0.1314
     29  N         13.7500   12.5140   35.7450 N.am   59  ASN59      -0.1960
     30  CA        15.0320   12.3630   35.0510 C.3    59  ASN59       0.1819
     31  C         16.1100   11.6590   35.8520 C.2    59  ASN59       0.2621
     32  O         16.7410   12.2650   36.7160 O.2    59  ASN59      -0.2715
     33  CB        15.5860   13.7250   34.6410 C.3    59  ASN59       0.1195
     34  CG        14.9460   14.2520   33.3940 C.2    59  ASN59       0.2630
     35  OD1       13.7450   14.0540   33.1760 O.2    59  ASN59      -0.2716
     36  ND2       15.7310   14.9430   32.5710 N.am   59  ASN59      -0.0877
     37  N         16.3250   10.3820   35.5530 N.am   60  ALA60      -0.1963
     38  CA        17.3640    9.6050   36.2170 C.3    60  ALA60       0.1728
     39  C         18.5800    9.6890   35.3030 C.2    60  ALA60       0.2617
     40  O         19.0970    8.6790   34.8300 O.2    60  ALA60      -0.2715
     41  CB        16.9250    8.1680   36.3820 C.3    60  ALA60       0.0334
     42  N         19.0290   10.9160   35.0660 N.am   61  THR61      -0.1937
     43  CA        20.1610   11.1570   34.1910 C.3    61  THR61       0.2028
     44  C         21.3880   11.7990   34.8400 C.2    61  THR61       0.2643
     45  O         22.3720   12.0640   34.1570 O.2    61  THR61      -0.2714
     46  CB        19.7240   12.0230   33.0040 C.3    61  THR61       0.1808
     47  OG1       19.0960   13.2220   33.4870 O.3    61  THR61      -0.2208
     48  CG2       18.7360   11.2550   32.1420 C.3    61  THR61       0.0379
     49  N         21.3390   12.0420   36.1470 N.am   62  SER62      -0.1935
     50  CA        22.4660   12.6580   36.8570 C.3    62  SER62       0.2055
     51  C         22.9140   11.7820   38.0110 C.2    62  SER62       0.2643
     52  O         22.0850   11.1970   38.7090 O.2    62  SER62      -0.2714
     53  CB        22.0640   14.0210   37.4160 C.3    62  SER62       0.2130
     54  OG        21.4660   14.8200   36.4130 O.3    62  SER62      -0.2179
     55  N         24.2210   11.7000   38.2260 N.am   63  TYR63      -0.1960
     56  CA        24.7390   10.8880   39.3160 C.3    63  TYR63       0.1756
     57  C         24.2230   11.3880   40.6440 C.2    63  TYR63       0.2461
     58  O         24.2110   12.5900   40.9000 O.2    63  TYR63      -0.2730
     59  CB        26.2640   10.9020   39.3140 C.3    63  TYR63       0.0574
     60  CG        26.8410   10.0440   38.2240 C.ar   63  TYR63      -0.0198
     61  CD1       26.7030    8.6560   38.2630 C.ar   63  TYR63      -0.0009
     62  CD2       27.4930   10.6140   37.1340 C.ar   63  TYR63      -0.0009
     63  CE1       27.2040    7.8540   37.2380 C.ar   63  TYR63       0.0417
     64  CE2       27.9970    9.8260   36.1070 C.ar   63  TYR63       0.0417
     65  CZ        27.8500    8.4470   36.1630 C.ar   63  TYR63       0.1957
     66  OH        28.3550    7.6610   35.1540 O.3    63  TYR63      -0.2866
     67  N         23.7770   10.4670   41.5100 N.am   64  PRO64      -0.2716
     68  CA        23.2600   10.8750   42.8160 C.3    64  PRO64       0.1521
     69  C         24.4100   11.2470   43.7520 C.2    64  PRO64       0.2440
     70  O         25.5800   11.0210   43.4270 O.2    64  PRO64      -0.2731
     71  CB        22.4880    9.6350   43.2780 C.3    64  PRO64       0.0310
     72  CG        23.2980    8.5090   42.7000 C.3    64  PRO64       0.0237
     73  CD        23.6650    9.0070   41.3200 C.3    64  PRO64       0.0939
     74  N         24.0940   11.8470   44.9130 N.am   65  PRO65      -0.2727
     75  CA        25.1380   12.2280   45.8700 C.3    65  PRO65       0.1402
     76  C         25.6030   10.9920   46.6370 C.2    65  PRO65       0.2269
     77  O         24.8130   10.0750   46.8670 O.2    65  PRO65      -0.2865
     78  CB        24.4210   13.2030   46.8050 C.3    65  PRO65       0.0296
     79  CG        23.2960   13.7170   45.9800 C.3    65  PRO65       0.0237
     80  CD        22.8180   12.4800   45.2730 C.3    65  PRO65       0.0939
     81  N         20.9110   13.0400   51.7500 N.3    95  ASP95      -0.1239
     82  CA        19.9540   12.5690   50.7600 C.3    95  ASP95       0.1674
     83  C         20.7660   11.7600   49.7530 C.2    95  ASP95       0.2266
     84  O         21.2270   12.2890   48.7400 O.2    95  ASP95      -0.2867
     85  CB        19.2770   13.7580   50.0870 C.3    95  ASP95       0.1410
     86  CG        18.3280   13.3370   48.9920 C.2    95  ASP95       0.3668
     87  OD1       17.7920   12.2070   49.0540 O.co2  95  ASP95      -0.2456
     88  OD2       18.1030   14.1470   48.0690 O.co2  95  ASP95      -0.2456
     89  N         19.8470    6.2300   46.8730 N.3    98  TYR98      -0.1241
     90  CA        19.5270    6.0580   45.4640 C.3    98  TYR98       0.1605
     91  C         20.2280    4.8210   44.9210 C.2    98  TYR98       0.2264
     92  O         21.1010    4.2340   45.5760 O.2    98  TYR98      -0.2867
     93  CB        19.9920    7.2530   44.6410 C.3    98  TYR98       0.0534
     94  CG        19.3730    8.5520   45.0400 C.ar   98  TYR98      -0.0201
     95  CD1       19.8440    9.2640   46.1370 C.ar   98  TYR98      -0.0009
     96  CD2       18.2770    9.0450   44.3560 C.ar   98  TYR98      -0.0009
     97  CE1       19.2250   10.4360   46.5520 C.ar   98  TYR98       0.0417
     98  CE2       17.6470   10.2070   44.7610 C.ar   98  TYR98       0.0417
     99  CZ        18.1180   10.9000   45.8630 C.ar   98  TYR98       0.1957
    100  OH        17.4360   12.0210   46.3000 O.3    98  TYR98      -0.2866
@<TRIPOS>BOND
     1    48    46    1
     2    36    34   am
     3    46    47    1
     4    46    43    1
     5    35    34    2
     6    34    33    1
     7    45    44    2
     8    43    44    1
     9    43    42    1
    10    33    30    1
    11    40    39    2
    12    44    49   am
    13    30    29    1
    14    30    31    1
    15    42    39   am
    16    66    65    1
    17     7     6    1
    18    39    38    1
    19    23    22    2
    20    37    31   am
    21    37    38    1
    22    29    22   am
    23     6     8    1
    24     6     5    1
    25    31    32    2
    26    20    21    1
    27    22    21    1
    28    64    65   ar
    29    64    62   ar
    30    49    50    1
    31    65    63   ar
    32    38    41    1
    33     1     2    1
    34    54    53    1
    35    21    24    1
    36    50    53    1
    37    50    51    1
    38     5     2    1
    39    62    60   ar
    40    63    61   ar
    41     2     3    1
    42    51    55   am
    43    51    52    2
    44    24    25    1
    45    60    61   ar
    46    60    59    1
    47     4     3    2
    48    55    56    1
    49     3     9   am
    50    25    26    1
    51    59    56    1
    52    56    57    1
    53     9    10    1
    54    26    27    1
    55    57    58    2
    56    57    67   am
    57    10    11    1
    58    11    12    2
    59    27    28    1
    60    73    67    1
    61    73    72    1
    62    67    68    1
    63    19    13    1
    64    19    18    1
    65    72    71    1
    66    68    71    1
    67    68    69    1
    68    13    14    1
    69    70    69    2
    70    18    17    1
    71    69    74   am
    72    96    98   ar
    73    96    94   ar
    74    16    15    2
    75    93    94    1
    76    93    90    1
    77    14    17    1
    78    14    15    1
    79    98    99   ar
    80    74    80    1
    81    74    75    1
    82    91    90    1
    83    91    92    2
    84    94    95   ar
    85    80    79    1
    86    90    89    1
    87    99   100    1
    88    99    97   ar
    89    75    76    1
    90    75    78    1
    91    79    78    1
    92    95    97   ar
    93    76    77    2
    94    88    86   ar
    95    84    83    2
    96    86    87   ar
    97    86    85    1
    98    83    82    1
    99    85    82    1
   100    82    81    1
