@<TRIPOS>MOLECULE
tmp/1yajH03.pdb
 139 128 0 0 0
SMALL
GASTEIGER

@<TRIPOS>ATOM
      1  N         48.0340   59.2130   10.3410 N.3    77  LEU77      -0.1245
      2  CA        49.1370   59.7570    9.5480 C.3    77  LEU77       0.1561
      3  C         50.4090   59.9180   10.4050 C.2    77  LEU77       0.2260
      4  O         51.5340   59.7640    9.9040 O.2    77  LEU77      -0.2867
      5  CB        48.7380   61.1130    8.9650 C.3    77  LEU77       0.0270
      6  CG        49.7190   61.7950    8.0150 C.3    77  LEU77       0.0019
      7  CD1       49.3470   61.4960    6.5740 C.3    77  LEU77       0.0001
      8  CD2       49.6790   63.2830    8.2650 C.3    77  LEU77       0.0001
      9  N         54.0760   58.4880    9.1030 N.3    81  PHE81      -0.1241
     10  CA        55.2250   59.3400    8.7750 C.3    81  PHE81       0.1605
     11  C         56.3660   59.3370    9.7550 C.2    81  PHE81       0.2264
     12  O         57.5310   59.4480    9.3780 O.2    81  PHE81      -0.2867
     13  CB        54.7980   60.7970    8.5750 C.3    81  PHE81       0.0534
     14  CG        54.0580   61.0510    7.2860 C.ar   81  PHE81      -0.0203
     15  CD1       54.2570   60.2400    6.1800 C.ar   81  PHE81      -0.0042
     16  CD2       53.1650   62.1120    7.1800 C.ar   81  PHE81      -0.0042
     17  CE1       53.5730   60.4620    5.0040 C.ar   81  PHE81      -0.0003
     18  CE2       52.4800   62.3390    6.0070 C.ar   81  PHE81      -0.0003
     19  CZ        52.6910   61.5120    4.9120 C.ar   81  PHE81      -0.0000
     20  N         49.9320   67.3330    5.8710 N.3   122  GLY122     -0.1210
     21  CA        48.5930   66.9500    6.2560 C.3   122  GLY122      0.1956
     22  C         47.5530   67.9100    5.6940 C.2   122  GLY122      0.2612
     23  O         46.6470   68.3610    6.4070 O.2   122  GLY122     -0.2717
     24  N         47.6880   68.2300    4.4080 N.am  123  GLY123     -0.1956
     25  CA        46.7560   69.1340    3.7370 C.3   123  GLY123      0.1869
     26  C         46.2750   70.3380    4.5280 C.2   123  GLY123      0.2309
     27  O         45.2050   70.8640    4.2660 O.2   123  GLY123     -0.2863
     28  N         45.5900   68.3590    9.2510 N.3   126  VAL126     -0.1245
     29  CA        46.0770   67.5540   10.3560 C.3   126  VAL126      0.1561
     30  C         47.5940   67.5940   10.4130 C.2   126  VAL126      0.2260
     31  O         48.2500   68.0830    9.4930 O.2   126  VAL126     -0.2867
     32  CB        45.6870   66.1010   10.1710 C.3   126  VAL126      0.0252
     33  CG1       44.1850   65.9550   10.1590 C.3   126  VAL126      0.0019
     34  CG2       46.2570   65.5920    8.8760 C.3   126  VAL126      0.0019
     35  N         54.6370   67.8560    1.3090 N.3   201  SER201     -0.1217
     36  CA        53.2220   67.9280    0.9850 C.3   201  SER201      0.1889
     37  C         52.6770   69.2780    1.4180 C.2   201  SER201      0.2288
     38  O         53.2470   70.3160    1.0870 O.2   201  SER201     -0.2866
     39  CB        52.4360   66.8030    1.6630 C.3   201  SER201      0.2089
     40  OG        51.2090   66.5610    0.9720 O.3   201  SER201     -0.2183
     41  N         50.1520   73.8650   -6.3190 N.3   232  THR232     -0.1218
     42  CA        49.2670   72.7120   -6.0730 C.3   232  THR232      0.1862
     43  C         47.8830   73.2840   -5.7820 C.2   232  THR232      0.2287
     44  O         47.5260   73.5460   -4.6290 O.2   232  THR232     -0.2866
     45  CB        49.7010   71.8470   -4.8310 C.3   232  THR232      0.1770
     46  OG1       51.0150   71.3020   -5.0250 O.3   232  THR232     -0.2211
     47  CG2       48.7230   70.7040   -4.6180 C.3   232  THR232      0.0375
     48  N         44.6110   72.4110   -5.3620 N.3   234  VAL234     -0.1231
     49  CA        43.8250   71.9760   -4.2220 C.3   234  VAL234      0.1692
     50  C         44.0770   72.7040   -2.8930 C.2   234  VAL234      0.2591
     51  O         43.1280   73.0170   -2.1830 O.2   234  VAL234     -0.2718
     52  CB        43.9720   70.4510   -4.0260 C.3   234  VAL234      0.0266
     53  CG1       45.4460   70.0680   -3.9970 C.3   234  VAL234      0.0020
     54  CG2       43.2470   70.0220   -2.7570 C.3   234  VAL234      0.0020
     55  N         45.3440   72.9840   -2.5790 N.am  235  LEU235     -0.1980
     56  CA        45.7340   73.6440   -1.3220 C.3   235  LEU235      0.1596
     57  C         45.6120   75.1570   -1.3000 C.2   235  LEU235      0.2287
     58  O         45.6400   75.7820   -0.2460 O.2   235  LEU235     -0.2864
     59  CB        47.1730   73.2870   -0.9600 C.3   235  LEU235      0.0297
     60  CG        47.3940   71.9240   -0.3320 C.3   235  LEU235      0.0022
     61  CD1       48.8630   71.7540   -0.0450 C.3   235  LEU235      0.0001
     62  CD2       46.5920   71.8050    0.9430 C.3   235  LEU235      0.0001
     63  N         38.8650   65.3240    3.7190 N.3   284  LEU284     -0.1245
     64  CA        39.9380   64.6790    3.0150 C.3   284  LEU284      0.1561
     65  C         39.3010   63.7150    2.0370 C.2   284  LEU284      0.2260
     66  O         39.7370   63.5330    0.8920 O.2   284  LEU284     -0.2867
     67  CB        40.7240   63.9830    4.1020 C.3   284  LEU284      0.0270
     68  CG        41.6230   62.7660    3.9080 C.3   284  LEU284      0.0019
     69  CD1       42.9660   63.1550    3.2620 C.3   284  LEU284      0.0001
     70  CD2       41.8820   62.1520    5.2870 C.3   284  LEU284      0.0001
     71  N         39.6800   71.2880    1.4760 N.3   298  LEU298     -0.1245
     72  CA        40.3920   72.0160    2.5120 C.3   298  LEU298      0.1561
     73  C         40.4080   73.5540    2.3800 C.2   298  LEU298      0.2260
     74  O         40.7500   74.1230    1.3380 O.2   298  LEU298     -0.2867
     75  CB        41.8240   71.4560    2.5860 C.3   298  LEU298      0.0270
     76  CG        42.6220   71.3220    1.2730 C.3   298  LEU298      0.0019
     77  CD1       43.3550   72.6270    0.9800 C.3   298  LEU298      0.0001
     78  CD2       43.6360   70.1890    1.3900 C.3   298  LEU298      0.0001
     79  N         48.4310   58.4340   -0.3090 N.3   339  ILE339     -0.1245
     80  CA        47.3460   59.3860   -0.5120 C.3   339  ILE339      0.1561
     81  C         46.0230   58.7010   -0.8210 C.2   339  ILE339      0.2260
     82  O         45.0800   58.8060   -0.0490 O.2   339  ILE339     -0.2867
     83  CB        47.6760   60.4090   -1.6110 C.3   339  ILE339      0.0252
     84  CG1       48.9120   61.2270   -1.1880 C.3   339  ILE339      0.0019
     85  CG2       46.4520   61.2900   -1.8730 C.3   339  ILE339      0.0019
     86  CD1       49.3910   62.2540   -2.1980 C.3   339  ILE339      0.0001
     87  N         44.0330   56.8190    2.0390 N.3   342  LEU342     -0.1231
     88  CA        43.2370   57.5870    2.9930 C.3   342  LEU342      0.1693
     89  C         42.0230   58.1940    2.2820 C.2   342  LEU342      0.2591
     90  O         40.9120   58.1740    2.8080 O.2   342  LEU342     -0.2718
     91  CB        44.1000   58.6940    3.6080 C.3   342  LEU342      0.0284
     92  CG        45.5160   58.3050    4.0370 C.3   342  LEU342      0.0019
     93  CD1       46.2850   59.5500    4.4430 C.3   342  LEU342      0.0001
     94  CD2       45.4490   57.3070    5.1740 C.3   342  LEU342      0.0001
     95  N         42.2540   58.7290    1.0850 N.am  343  MET343     -0.1979
     96  CA        41.2110   59.3360    0.2650 C.3   343  MET343      0.1605
     97  C         40.0920   58.3170    0.0360 C.2   343  MET343      0.2287
     98  O         38.9760   58.6790   -0.3410 O.2   343  MET343     -0.2864
     99  CB        41.7880   59.7640   -1.0940 C.3   343  MET343      0.0413
    100  CG        42.6530   61.0190   -1.0990 C.3   343  MET343      0.0598
    101  SD        41.7120   62.5520   -1.3150 S.3   343  MET343     -0.1393
    102  CE        42.4080   63.6610   -0.0480 C.3   343  MET343      0.0692
    103  N         40.8030   67.3550   -6.8260 N.3   367  LEU367     -0.1245
    104  CA        42.2140   67.0000   -6.7370 C.3   367  LEU367      0.1561
    105  C         42.9710   67.3800   -7.9960 C.2   367  LEU367      0.2260
    106  O         44.1190   67.8020   -7.9320 O.2   367  LEU367     -0.2867
    107  CB        42.3700   65.4990   -6.4870 C.3   367  LEU367      0.0270
    108  CG        42.0390   65.0070   -5.0740 C.3   367  LEU367      0.0019
    109  CD1       42.1370   63.4850   -4.9850 C.3   367  LEU367      0.0001
    110  CD2       42.9970   65.6490   -4.0930 C.3   367  LEU367      0.0001
    111  N         49.1470   66.7840   -9.6610 N.3   404  MET404     -0.1230
    112  CA        49.1790   67.3850   -8.3400 C.3   404  MET404      0.1702
    113  C         50.5530   67.9410   -8.0280 C.2   404  MET404      0.2592
    114  O         50.6570   69.0690   -7.5520 O.2   404  MET404     -0.2718
    115  CB        48.7960   66.3730   -7.2650 C.3   404  MET404      0.0401
    116  CG        47.5480   65.6340   -7.5880 C.3   404  MET404      0.0596
    117  SD        46.4670   65.5530   -6.1980 S.3   404  MET404     -0.1393
    118  CE        47.5780   64.8980   -4.9350 C.3   404  MET404      0.0692
    119  N         51.5990   67.1580   -8.3150 N.am  405  PHE405     -0.1976
    120  CA        52.9810   67.5460   -8.0120 C.3   405  PHE405      0.1639
    121  C         53.9220   67.7240   -9.2170 C.2   405  PHE405      0.2290
    122  O         54.4190   68.8210   -9.4680 O.2   405  PHE405     -0.2864
    123  CB        53.5900   66.5320   -7.0430 C.3   405  PHE405      0.0560
    124  CG        52.6790   66.1040   -5.9300 C.ar  405  PHE405     -0.0200
    125  CD1       51.6780   65.1860   -6.1570 C.ar  405  PHE405     -0.0042
    126  CD2       52.8310   66.6070   -4.6560 C.ar  405  PHE405     -0.0042
    127  CE1       50.8890   64.7350   -5.1320 C.ar  405  PHE405     -0.0003
    128  CE2       52.0420   66.1560   -3.6230 C.ar  405  PHE405     -0.0003
    129  CZ        51.0580   65.2380   -3.8660 C.ar  405  PHE405     -0.0000
    130  N         54.2290   58.6020   -1.8470 N.3   447  HIS447     -0.1241
    131  CA        54.2000   59.9040   -1.2010 C.3   447  HIS447      0.1621
    132  C         54.7860   59.8630    0.2130 C.2   447  HIS447      0.2264
    133  O         54.2870   59.1450    1.0970 O.2   447  HIS447     -0.2867
    134  CB        52.7630   60.4050   -1.1280 C.3   447  HIS447      0.0745
    135  CG        52.6200   61.7770   -0.5480 C.ar  447  HIS447      0.0817
    136  ND1       52.9880   62.9190   -1.2330 N.ar  447  HIS447     -0.2268
    137  CD2       52.1050   62.1970    0.6330 C.ar  447  HIS447      0.1154
    138  CE1       52.6980   63.9820   -0.5030 C.ar  447  HIS447      0.1986
    139  NE2       52.1610   63.5720    0.6340 N.ar  447  HIS447     -0.2212
@<TRIPOS>BOND
     1   111   112    1
     2   122   121    2
     3   121   120    1
     4   112   113    1
     5   112   115    1
     6   119   113   am
     7   119   120    1
     8   113   114    2
     9   120   123    1
    10   105   106    2
    11   105   104    1
    12   116   115    1
    13   116   117    1
    14   123   124    1
    15   103   104    1
    16   104   107    1
    17   107   108    1
    18    41    42    1
    19   117   118    1
    20   125   124   ar
    21   125   127   ar
    22    42    43    1
    23    42    45    1
    24   124   126   ar
    25    43    44    2
    26    48    49    1
    27   127   129   ar
    28   108   109    1
    29   108   110    1
    30    46    45    1
    31    45    47    1
    32   126   128   ar
    33    49    52    1
    34    49    50    1
    35    52    53    1
    36    52    54    1
    37   129   128   ar
    38    50    55   am
    39    50    51    2
    40    55    56    1
    41    86    84    1
    42    85    83    1
    43   130   131    1
    44    83    84    1
    45    83    80    1
    46    56    57    1
    47    56    59    1
    48   101   100    1
    49   101   102    1
    50    57    58    2
    51   136   135   ar
    52   136   138   ar
    53   131   134    1
    54   131   132    1
    55   134   135    1
    56   100    99    1
    57    99    96    1
    58    59    60    1
    59    81    80    1
    60    81    82    2
    61   135   137   ar
    62    80    79    1
    63   138   139   ar
    64    98    97    2
    65    60    61    1
    66    60    62    1
    67    97    96    1
    68   132   133    2
    69    96    95    1
    70   137   139   ar
    71    66    65    2
    72    40    39    1
    73    77    76    1
    74    36    35    1
    75    36    37    1
    76    36    39    1
    77    95    89   am
    78    38    37    2
    79    76    78    1
    80    76    75    1
    81    74    73    2
    82    71    72    1
    83    65    64    1
    84    87    88    1
    85    89    90    2
    86    89    88    1
    87    73    72    1
    88    72    75    1
    89    88    91    1
    90    64    63    1
    91    64    67    1
    92    69    68    1
    93    91    92    1
    94    25    24    1
    95    25    26    1
    96    68    67    1
    97    68    70    1
    98    92    93    1
    99    92    94    1
   100    27    26    2
   101    24    22   am
   102    19    17   ar
   103    19    18   ar
   104    17    15   ar
   105    22    21    1
   106    22    23    2
   107    20    21    1
   108    18    16   ar
   109    15    14   ar
   110     7     6    1
   111    16    14   ar
   112    14    13    1
   113     6     8    1
   114     6     5    1
   115    13    10    1
   116    10     9    1
   117    10    11    1
   118    34    32    1
   119     5     2    1
   120    28    29    1
   121    12    11    2
   122    31    30    2
   123     2     1    1
   124     2     3    1
   125     4     3    2
   126    33    32    1
   127    32    29    1
   128    29    30    1
