@<TRIPOS>MOLECULE
tmp/1yajI03.pdb
 151 140 0 0 0
SMALL
GASTEIGER

@<TRIPOS>ATOM
      1  N         32.4510   85.9960   60.1270 N.3    77  LEU77      -0.1245
      2  CA        33.7290   86.6230   60.4240 C.3    77  LEU77       0.1561
      3  C         33.5420   88.1390   60.6490 C.2    77  LEU77       0.2260
      4  O         34.1100   88.7140   61.5880 O.2    77  LEU77      -0.2867
      5  CB        34.7110   86.3750   59.2730 C.3    77  LEU77       0.0270
      6  CG        36.1620   86.8040   59.5280 C.3    77  LEU77       0.0019
      7  CD1       36.7360   85.9090   60.6080 C.3    77  LEU77       0.0001
      8  CD2       37.0070   86.7150   58.2580 C.3    77  LEU77       0.0001
      9  N         34.2320   90.4270   63.9640 N.3    81  PHE81      -0.1241
     10  CA        35.3290   91.3530   63.7690 C.3    81  PHE81       0.1605
     11  C         34.9370   92.8350   63.7250 C.2    81  PHE81       0.2264
     12  O         35.7710   93.7090   64.0170 O.2    81  PHE81      -0.2867
     13  CB        36.0860   90.9640   62.4930 C.3    81  PHE81       0.0534
     14  CG        37.2110   89.9700   62.7040 C.ar   81  PHE81      -0.0203
     15  CD1       37.1760   89.0550   63.7410 C.ar   81  PHE81      -0.0042
     16  CD2       38.3210   89.9800   61.8620 C.ar   81  PHE81      -0.0042
     17  CE1       38.2040   88.1540   63.9200 C.ar   81  PHE81      -0.0003
     18  CE2       39.3540   89.0770   62.0380 C.ar   81  PHE81      -0.0003
     19  CZ        39.2980   88.1710   63.0850 C.ar   81  PHE81      -0.0000
     20  N         41.7260   91.0620   57.5460 N.3   121  GLY121     -0.1210
     21  CA        42.1050   89.6600   57.5200 C.3   121  GLY121      0.1956
     22  C         40.9040   88.8010   57.1730 C.2   121  GLY121      0.2612
     23  O         39.7620   89.2260   57.3150 O.2   121  GLY121     -0.2717
     24  N         41.1570   87.5890   56.7100 N.am  122  GLY122     -0.1942
     25  CA        40.0780   86.6940   56.3500 C.3   122  GLY122      0.2014
     26  C         40.7020   85.4750   55.7110 C.2   122  GLY122      0.2639
     27  O         40.0320   84.7180   55.0140 O.2   122  GLY122     -0.2714
     28  N         42.0010   85.3010   55.9530 N.am  123  GLY123     -0.1954
     29  CA        42.7320   84.1790   55.4080 C.3   123  GLY123      0.1869
     30  C         42.7590   84.1470   53.8970 C.2   123  GLY123      0.2309
     31  O         42.8680   83.0860   53.3040 O.2   123  GLY123     -0.2863
     32  N         37.9630   84.9870   52.8450 N.3   126  VAL126     -0.1245
     33  CA        36.7780   85.7770   53.1940 C.3   126  VAL126      0.1561
     34  C         37.1470   87.1700   53.7330 C.2   126  VAL126      0.2260
     35  O         38.3320   87.4650   53.9400 O.2   126  VAL126     -0.2867
     36  CB        35.9260   85.0320   54.2730 C.3   126  VAL126      0.0252
     37  CG1       35.4110   83.7180   53.7180 C.3   126  VAL126      0.0019
     38  CG2       36.7570   84.7680   55.4970 C.3   126  VAL126      0.0019
     39  N         45.8050   89.1040   60.9530 N.3   201  SER201     -0.1217
     40  CA        45.6540   87.7850   60.3500 C.3   201  SER201      0.1889
     41  C         46.1140   87.8040   58.8900 C.2   201  SER201      0.2288
     42  O         47.2920   88.0750   58.6070 O.2   201  SER201     -0.2866
     43  CB        44.2030   87.3060   60.4230 C.3   201  SER201      0.2089
     44  OG        44.1040   85.9690   59.9510 O.3   201  SER201     -0.2183
     45  N         54.0890   82.6220   58.1120 N.3   232  THR232     -0.1218
     46  CA        52.9240   81.8130   58.5080 C.3   232  THR232      0.1862
     47  C         52.5510   80.8700   57.3600 C.2   232  THR232      0.2287
     48  O         51.8540   81.2420   56.4080 O.2   232  THR232     -0.2866
     49  CB        51.6720   82.6760   58.8860 C.3   232  THR232      0.1770
     50  OG1       51.9920   83.5530   59.9780 O.3   232  THR232     -0.2211
     51  CG2       50.5130   81.7650   59.3310 C.3   232  THR232      0.0375
     52  N         50.4820   78.0820   56.4680 N.3   234  VAL234     -0.1231
     53  CA        49.1250   78.0120   55.9280 C.3   234  VAL234      0.1692
     54  C         48.7230   79.0880   54.8960 C.2   234  VAL234      0.2591
     55  O         47.8570   78.8560   54.0450 O.2   234  VAL234     -0.2718
     56  CB        48.0990   78.0010   57.0950 C.3   234  VAL234      0.0266
     57  CG1       47.9320   79.4240   57.6680 C.3   234  VAL234      0.0020
     58  CG2       46.7710   77.3990   56.6290 C.3   234  VAL234      0.0020
     59  N         49.3450   80.2580   54.9580 N.am  235  LEU235     -0.1980
     60  CA        49.0140   81.3280   54.0170 C.3   235  LEU235      0.1596
     61  C         49.9900   81.5040   52.8320 C.2   235  LEU235      0.2287
     62  O         49.6710   82.1940   51.8660 O.2   235  LEU235     -0.2864
     63  CB        48.8640   82.6560   54.7750 C.3   235  LEU235      0.0297
     64  CG        47.6070   82.8380   55.6290 C.3   235  LEU235      0.0022
     65  CD1       47.7000   84.1250   56.4300 C.3   235  LEU235      0.0001
     66  CD2       46.3920   82.8550   54.7320 C.3   235  LEU235      0.0001
     67  N         37.8680   75.8790   54.8390 N.3   284  LEU284     -0.1245
     68  CA        38.3510   76.3820   56.0900 C.3   284  LEU284      0.1561
     69  C         38.3540   75.1910   57.0160 C.2   284  LEU284      0.2260
     70  O         39.3550   74.8720   57.6720 O.2   284  LEU284     -0.2867
     71  CB        37.3700   77.4640   56.4920 C.3   284  LEU284      0.0270
     72  CG        36.9630   77.7280   57.9380 C.3   284  LEU284      0.0019
     73  CD1       37.9610   78.6700   58.6080 C.3   284  LEU284      0.0001
     74  CD2       35.5590   78.3660   57.9570 C.3   284  LEU284      0.0001
     75  N         43.5710   76.3630   52.1810 N.3   298  LEU298     -0.1245
     76  CA        43.1780   77.5640   51.4410 C.3   298  LEU298      0.1561
     77  C         44.2720   78.0170   50.4690 C.2   298  LEU298      0.2260
     78  O         45.4690   77.9330   50.7810 O.2   298  LEU298     -0.2867
     79  CB        42.8260   78.7060   52.4210 C.3   298  LEU298      0.0270
     80  CG        43.8570   79.1800   53.4640 C.3   298  LEU298      0.0019
     81  CD1       44.7640   80.2750   52.8850 C.3   298  LEU298      0.0001
     82  CD2       43.1130   79.6920   54.6970 C.3   298  LEU298      0.0001
     83  N         38.1550   81.4960   68.7640 N.3   338  LEU338     -0.1231
     84  CA        37.7760   81.9360   67.4290 C.3   338  LEU338      0.1693
     85  C         38.0740   80.9380   66.3150 C.2   338  LEU338      0.2591
     86  O         37.1690   80.2720   65.8240 O.2   338  LEU338     -0.2718
     87  CB        38.4710   83.2530   67.1150 C.3   338  LEU338      0.0284
     88  CG        38.0150   83.9110   65.8220 C.3   338  LEU338      0.0019
     89  CD1       36.5880   84.4040   65.9710 C.3   338  LEU338      0.0001
     90  CD2       38.9370   85.0530   65.5000 C.3   338  LEU338      0.0001
     91  N         39.3430   80.8520   65.9200 N.am  339  ILE339     -0.1980
     92  CA        39.7800   79.9590   64.8520 C.3   339  ILE339      0.1595
     93  C         39.2060   78.5420   64.9340 C.2   339  ILE339      0.2287
     94  O         38.6070   78.0570   63.9760 O.2   339  ILE339     -0.2864
     95  CB        41.3010   79.8520   64.8210 C.3   339  ILE339      0.0276
     96  CG1       41.9180   81.2240   64.6010 C.3   339  ILE339      0.0022
     97  CG2       41.7160   78.9210   63.7270 C.3   339  ILE339      0.0022
     98  CD1       43.4280   81.2040   64.6050 C.3   339  ILE339      0.0001
     99  N         35.7210   78.3230   64.2210 N.3   342  LEU342     -0.1231
    100  CA        35.5030   78.5240   62.7920 C.3   342  LEU342      0.1693
    101  C         35.7560   77.2750   61.9560 C.2   342  LEU342      0.2591
    102  O         34.9000   76.8530   61.1590 O.2   342  LEU342     -0.2718
    103  CB        36.4040   79.6400   62.2760 C.3   342  LEU342      0.0284
    104  CG        36.2280   80.9840   62.9600 C.3   342  LEU342      0.0019
    105  CD1       37.2200   81.9560   62.3560 C.3   342  LEU342      0.0001
    106  CD2       34.7940   81.4750   62.7950 C.3   342  LEU342      0.0001
    107  N         36.9430   76.7010   62.1240 N.am  343  MET343     -0.1979
    108  CA        37.3120   75.5160   61.3780 C.3   343  MET343      0.1605
    109  C         36.6170   74.2930   61.9220 C.2   343  MET343      0.2287
    110  O         36.8730   73.1840   61.4690 O.2   343  MET343     -0.2864
    111  CB        38.8220   75.3270   61.4070 C.3   343  MET343      0.0413
    112  CG        39.5620   76.3970   60.6250 C.3   343  MET343      0.0598
    113  SD        41.3480   76.2120   60.7110 S.3   343  MET343     -0.1393
    114  CE        41.6210   74.9440   59.4850 C.3   343  MET343      0.0692
    115  N         47.9230   73.0380   58.8690 N.3   367  LEU367     -0.1245
    116  CA        47.9440   74.2760   59.6260 C.3   367  LEU367      0.1561
    117  C         49.3130   74.6270   60.1590 C.2   367  LEU367      0.2260
    118  O         49.8510   75.7010   59.8560 O.2   367  LEU367     -0.2867
    119  CB        46.9510   74.1970   60.7810 C.3   367  LEU367      0.0270
    120  CG        45.4780   74.3160   60.3840 C.3   367  LEU367      0.0019
    121  CD1       44.5900   74.1050   61.6070 C.3   367  LEU367      0.0001
    122  CD2       45.2230   75.6840   59.7790 C.3   367  LEU367      0.0001
    123  N         51.6840   78.6040   64.8090 N.3   404  MET404     -0.1230
    124  CA        51.0890   79.4440   63.7900 C.3   404  MET404      0.1702
    125  C         51.5160   80.8810   63.8540 C.2   404  MET404      0.2592
    126  O         51.8980   81.4430   62.8330 O.2   404  MET404     -0.2718
    127  CB        49.5720   79.3720   63.8380 C.3   404  MET404      0.0401
    128  CG        49.0380   78.0270   63.3960 C.3   404  MET404      0.0596
    129  SD        47.3980   78.1080   62.6150 S.3   404  MET404     -0.1393
    130  CE        46.3010   77.8920   64.0280 C.3   404  MET404      0.0692
    131  N         51.4780   81.4860   65.0330 N.am  405  PHE405     -0.1976
    132  CA        51.8440   82.8930   65.1240 C.3   405  PHE405      0.1639
    133  C         53.0010   83.1750   66.0540 C.2   405  PHE405      0.2290
    134  O         53.8790   83.9590   65.7210 O.2   405  PHE405     -0.2864
    135  CB        50.6530   83.7460   65.5820 C.3   405  PHE405      0.0560
    136  CG        49.3570   83.4470   64.8550 C.ar  405  PHE405     -0.0200
    137  CD1       48.6110   82.3110   65.1520 C.ar  405  PHE405     -0.0042
    138  CD2       48.8490   84.3370   63.9270 C.ar  405  PHE405     -0.0042
    139  CE1       47.4050   82.0620   64.5260 C.ar  405  PHE405     -0.0003
    140  CE2       47.6400   84.0870   63.2960 C.ar  405  PHE405     -0.0003
    141  CZ        46.9170   82.9550   63.6110 C.ar  405  PHE405     -0.0000
    142  N         41.8950   85.4330   69.2850 N.3   447  HIS447     -0.1241
    143  CA        42.3300   85.8890   67.9810 C.3   447  HIS447      0.1621
    144  C         41.6200   87.1770   67.5800 C.2   447  HIS447      0.2264
    145  O         40.3950   87.2720   67.6400 O.2   447  HIS447     -0.2867
    146  CB        42.0600   84.8090   66.9430 C.3   447  HIS447      0.0745
    147  CG        42.8060   85.0150   65.6690 C.ar  447  HIS447      0.0817
    148  ND1       44.1790   85.0850   65.6220 N.ar  447  HIS447     -0.2268
    149  CD2       42.3710   85.1810   64.3980 C.ar  447  HIS447      0.1154
    150  CE1       44.5610   85.2870   64.3730 C.ar  447  HIS447      0.1986
    151  NE2       43.4840   85.3490   63.6110 N.ar  447  HIS447     -0.2212
@<TRIPOS>BOND
     1    77    78    2
     2    77    76    1
     3    76    75    1
     4    76    79    1
     5    62    61    2
     6    79    80    1
     7    61    60    1
     8    32    33    1
     9    81    80    1
    10    33    34    1
    11    33    36    1
    12    31    30    2
    13    80    82    1
    14    37    36    1
    15    34    35    2
    16    30    29    1
    17    60    63    1
    18    60    59    1
    19    55    54    2
    20    36    38    1
    21    66    64    1
    22    63    64    1
    23    67    68    1
    24    54    59   am
    25    54    53    1
    26    27    26    2
    27    29    28    1
    28    64    65    1
    29    26    28   am
    30    26    25    1
    31    53    52    1
    32    53    56    1
    33    68    71    1
    34    68    69    1
    35    25    24    1
    36    48    47    2
    37    71    72    1
    38    58    56    1
    39    24    22   am
    40    69    70    2
    41    56    57    1
    42    22    23    2
    43    22    21    1
    44    47    46    1
    45    21    20    1
    46    72    74    1
    47    72    73    1
    48    45    46    1
    49     8     6    1
    50    46    49    1
    51    42    41    2
    52   115   116    1
    53    49    51    1
    54    49    50    1
    55    41    40    1
    56     5     6    1
    57     5     2    1
    58   114   113    1
    59     6     7    1
    60   116   117    1
    61   116   119    1
    62   122   120    1
    63   118   117    2
    64    44    43    1
    65     1     2    1
    66    40    43    1
    67    40    39    1
    68   120   119    1
    69   120   121    1
    70     2     3    1
    71   112   113    1
    72   112   111    1
    73     3     4    2
    74   102   101    2
    75   108   111    1
    76   108   109    1
    77   108   107    1
    78   110   109    2
    79    16    18   ar
    80    16    14   ar
    81   101   107   am
    82   101   100    1
    83    18    19   ar
    84   103   100    1
    85   103   104    1
    86   105   104    1
    87    13    14    1
    88    13    10    1
    89   129   128    1
    90   129   130    1
    91    14    15   ar
    92   100    99    1
    93   106   104    1
    94   126   125    2
    95    19    17   ar
    96   140   141   ar
    97   140   138   ar
    98   128   127    1
    99   141   139   ar
   100   151   150   ar
   101   151   149   ar
   102    11    10    1
   103    11    12    2
   104    97    95    1
   105    15    17   ar
   106    10     9    1
   107   124   127    1
   108   124   125    1
   109   124   123    1
   110   125   131   am
   111   138   136   ar
   112    94    93    2
   113   150   148   ar
   114   149   147   ar
   115   139   137   ar
   116    96    98    1
   117    96    95    1
   118    95    92    1
   119    92    93    1
   120    92    91    1
   121   136   137   ar
   122   136   135    1
   123   131   132    1
   124   132   135    1
   125   132   133    1
   126    90    88    1
   127   148   147   ar
   128   147   146    1
   129   134   133    2
   130    88    89    1
   131    88    87    1
   132    86    85    2
   133    91    85   am
   134    85    84    1
   135   146   143    1
   136    87    84    1
   137    84    83    1
   138   144   145    2
   139   144   143    1
   140   143   142    1
