@<TRIPOS>MOLECULE
tmp/1yajC02.pdb
 114 106 0 0 0
SMALL
GASTEIGER

@<TRIPOS>ATOM
      1  N         30.5620    9.8830   15.2600 N.3    77  LEU77      -0.1245
      2  CA        30.0690   11.2450   15.4190 C.3    77  LEU77       0.1561
      3  C         29.4280   11.4050   16.7870 C.2    77  LEU77       0.2260
      4  O         29.7030   12.3550   17.4990 O.2    77  LEU77      -0.2867
      5  CB        29.0470   11.5670   14.3200 C.3    77  LEU77       0.0270
      6  CG        28.4270   12.9700   14.2620 C.3    77  LEU77       0.0019
      7  CD1       29.5000   14.0190   14.0430 C.3    77  LEU77       0.0001
      8  CD2       27.4150   13.0190   13.1340 C.3    77  LEU77       0.0001
      9  N         30.6770   14.3720   19.8070 N.3    81  PHE81      -0.1241
     10  CA        29.7710   15.4860   20.0980 C.3    81  PHE81       0.1605
     11  C         29.0390   15.3370   21.4110 C.2    81  PHE81       0.2264
     12  O         28.7590   16.3200   22.0820 O.2    81  PHE81      -0.2867
     13  CB        28.7140   15.6390   19.0160 C.3    81  PHE81       0.0534
     14  CG        29.1980   16.3180   17.7800 C.ar   81  PHE81      -0.0203
     15  CD1       30.5460   16.6010   17.5990 C.ar   81  PHE81      -0.0042
     16  CD2       28.3150   16.5980   16.7430 C.ar   81  PHE81      -0.0042
     17  CE1       31.0080   17.2030   16.4170 C.ar   81  PHE81      -0.0003
     18  CE2       28.7630   17.1960   15.5660 C.ar   81  PHE81      -0.0003
     19  CZ        30.1250   17.4770   15.3930 C.ar   81  PHE81      -0.0000
     20  N         25.2010   16.6690   11.1210 N.3   122  GLY122     -0.1210
     21  CA        25.8400   15.4280   10.7370 C.3   122  GLY122      0.1956
     22  C         25.9360   15.2730    9.2300 C.2   122  GLY122      0.2612
     23  O         26.1600   14.1700    8.7370 O.2   122  GLY122     -0.2717
     24  N         25.7600   16.3670    8.4920 N.am  123  GLY123     -0.1956
     25  CA        25.8470   16.3040    7.0390 C.3   123  GLY123      0.1869
     26  C         24.6090   15.7310    6.3920 C.2   123  GLY123      0.2309
     27  O         24.5970   15.3900    5.2130 O.2   123  GLY123     -0.2863
     28  N         24.3880   11.2140    8.8580 N.3   126  VAL126     -0.1245
     29  CA        24.5350   10.5190   10.1320 C.3   126  VAL126      0.1561
     30  C         24.2670   11.4890   11.2600 C.2   126  VAL126      0.2260
     31  O         24.5770   12.6530   11.1510 O.2   126  VAL126     -0.2867
     32  CB        25.9550    9.9570   10.2860 C.3   126  VAL126      0.0252
     33  CG1       26.2770    9.0600    9.0890 C.3   126  VAL126      0.0019
     34  CG2       26.9570   11.0920   10.4100 C.3   126  VAL126      0.0019
     35  N         26.1840   22.7670   12.2740 N.3   201  SER201     -0.1202
     36  CA        26.5620   22.1970   10.9850 C.3   201  SER201      0.2020
     37  C         25.3480   22.0000   10.0890 C.2   201  SER201      0.2618
     38  O         24.6220   22.9510    9.8000 O.2   201  SER201     -0.2717
     39  CB        27.2750   20.8560   11.2030 C.3   201  SER201      0.2103
     40  OG        27.7410   20.3060    9.9790 O.3   201  SER201     -0.2182
     41  N         25.1290   20.7650    9.6400 N.am  202  ALA202     -0.1979
     42  CA        23.9860   20.4680    8.7850 C.3   202  ALA202      0.1597
     43  C         22.7480   20.8950    9.5640 C.2   202  ALA202      0.2287
     44  O         21.7780   21.3980    9.0000 O.2   202  ALA202     -0.2864
     45  CB        23.9440   18.9940    8.4720 C.3   202  ALA202      0.0319
     46  N         25.7040   21.3970    0.9610 N.3   235  LEU235     -0.1245
     47  CA        24.4460   20.8590    1.5020 C.3   235  LEU235      0.1561
     48  C         23.1960   21.0970    0.6790 C.2   235  LEU235      0.2260
     49  O         22.1550   20.4900    0.9240 O.2   235  LEU235     -0.2867
     50  CB        24.1970   21.4200    2.8970 C.3   235  LEU235      0.0270
     51  CG        25.0810   20.9270    4.0390 C.3   235  LEU235      0.0019
     52  CD1       24.7420   21.7660    5.2670 C.3   235  LEU235      0.0001
     53  CD2       24.8710   19.4290    4.3000 C.3   235  LEU235      0.0001
     54  N         30.3380   11.3470    2.7320 N.3   284  LEU284     -0.1245
     55  CA        31.1080   11.8550    3.8640 C.3   284  LEU284      0.1561
     56  C         32.6210   11.6360    3.6880 C.2   284  LEU284      0.2260
     57  O         33.4080   12.0060    4.5490 O.2   284  LEU284     -0.2867
     58  CB        30.6200   11.1790    5.1580 C.3   284  LEU284      0.0270
     59  CG        31.0460   11.7980    6.4970 C.3   284  LEU284      0.0019
     60  CD1       30.4050   13.1760    6.6550 C.3   284  LEU284      0.0001
     61  CD2       30.6210   10.8970    7.6410 C.3   284  LEU284      0.0001
     62  N         37.9400   17.8700   13.0290 N.3   338  LEU338     -0.1231
     63  CA        36.7560   17.0320   12.9470 C.3   338  LEU338      0.1693
     64  C         36.2960   16.7430   11.5220 C.2   338  LEU338      0.2591
     65  O         35.8570   15.6380   11.2220 O.2   338  LEU338     -0.2718
     66  CB        35.6200   17.6640   13.7320 C.3   338  LEU338      0.0284
     67  CG        34.3410   16.8480   13.8490 C.3   338  LEU338      0.0019
     68  CD1       34.5180   15.7940   14.8880 C.3   338  LEU338      0.0001
     69  CD2       33.1890   17.7610   14.2390 C.3   338  LEU338      0.0001
     70  N         36.4060   17.7200   10.6360 N.am  339  ILE339     -0.1980
     71  CA        35.9660   17.5030    9.2730 C.3   339  ILE339      0.1595
     72  C         37.0450   16.8580    8.3990 C.2   339  ILE339      0.2287
     73  O         36.7800   15.8910    7.7010 O.2   339  ILE339     -0.2864
     74  CB        35.4840   18.8200    8.6640 C.3   339  ILE339      0.0276
     75  CG1       34.6510   19.5760    9.6990 C.3   339  ILE339      0.0022
     76  CG2       34.6190   18.5530    7.4600 C.3   339  ILE339      0.0022
     77  CD1       34.0800   20.8700    9.1870 C.3   339  ILE339      0.0001
     78  N         37.2340   13.0670    9.6200 N.3   342  LEU342     -0.1231
     79  CA        36.1220   12.2310    9.1850 C.3   342  LEU342      0.1693
     80  C         36.1720   11.9530    7.6900 C.2   342  LEU342      0.2591
     81  O         35.8540   10.8470    7.2510 O.2   342  LEU342     -0.2718
     82  CB        34.7790   12.8820    9.5300 C.3   342  LEU342      0.0284
     83  CG        34.3330   12.8260   10.9950 C.3   342  LEU342      0.0019
     84  CD1       33.0580   13.6470   11.1800 C.3   342  LEU342      0.0001
     85  CD2       34.0970   11.3820   11.4010 C.3   342  LEU342      0.0001
     86  N         36.5840   12.9460    6.9100 N.am  343  MET343     -0.1979
     87  CA        36.6470   12.7850    5.4640 C.3   343  MET343      0.1605
     88  C         37.9320   12.1430    4.9860 C.2   343  MET343      0.2287
     89  O         38.1220   11.8980    3.7870 O.2   343  MET343     -0.2864
     90  CB        36.4510   14.1340    4.7810 C.3   343  MET343      0.0413
     91  CG        35.0540   14.6910    4.9810 C.3   343  MET343      0.0598
     92  SD        34.7140   16.1030    3.9500 S.3   343  MET343     -0.1393
     93  CE        34.0770   15.2970    2.4450 C.3   343  MET343      0.0692
     94  N         31.8960   27.9790    5.8330 N.3   405  PHE405     -0.1241
     95  CA        31.2480   28.5500    7.0000 C.3   405  PHE405      0.1605
     96  C         31.5440   30.0380    7.1360 C.2   405  PHE405      0.2264
     97  O         30.6640   30.8240    7.4700 O.2   405  PHE405     -0.2867
     98  CB        31.7080   27.8230    8.2810 C.3   405  PHE405      0.0534
     99  CG        31.5930   26.3150    8.2120 C.ar  405  PHE405     -0.0203
    100  CD1       32.6390   25.5420    7.7410 C.ar  405  PHE405     -0.0042
    101  CD2       30.4280   25.6820    8.5960 C.ar  405  PHE405     -0.0042
    102  CE1       32.5140   24.1770    7.6310 C.ar  405  PHE405     -0.0003
    103  CE2       30.3000   24.3240    8.4860 C.ar  405  PHE405     -0.0003
    104  CZ        31.3480   23.5660    8.0090 C.ar  405  PHE405     -0.0000
    105  N         35.2740   22.6570   14.4570 N.3   447  HIS447     -0.1241
    106  CA        33.8720   22.3850   14.1850 C.3   447  HIS447      0.1621
    107  C         33.2030   21.6450   15.3430 C.2   447  HIS447      0.2264
    108  O         33.6250   20.5630   15.7320 O.2   447  HIS447     -0.2867
    109  CB        33.7640   21.5390   12.9180 C.3   447  HIS447      0.0745
    110  CG        32.3780   21.4650   12.3500 C.ar  447  HIS447      0.0817
    111  ND1       31.7770   22.5260   11.7100 N.ar  447  HIS447     -0.2268
    112  CD2       31.4830   20.4520   12.3250 C.ar  447  HIS447      0.1154
    113  CE1       30.5670   22.1680   11.3120 C.ar  447  HIS447      0.1986
    114  NE2       30.3640   20.9170   11.6730 N.ar  447  HIS447     -0.2212
@<TRIPOS>BOND
     1    48    49    2
     2    48    47    1
     3    46    47    1
     4    47    50    1
     5    93    92    1
     6    54    55    1
     7    50    51    1
     8    56    55    1
     9    56    57    2
    10    89    88    2
    11    55    58    1
    12    92    91    1
    13    51    53    1
    14    51    52    1
    15    90    91    1
    16    90    87    1
    17    88    87    1
    18    58    59    1
    19    27    26    2
    20    87    86    1
    21    94    95    1
    22    26    25    1
    23    59    60    1
    24    59    61    1
    25    86    80   am
    26    95    96    1
    27    95    98    1
    28    25    24    1
    29    96    97    2
    30    81    80    2
    31    76    74    1
    32   102   100   ar
    33   102   104   ar
    34    80    79    1
    35    73    72    2
    36   100    99   ar
    37   104   103   ar
    38    99    98    1
    39    99   101   ar
    40    72    71    1
    41    45    42    1
    42   103   101   ar
    43    24    22   am
    44    74    71    1
    45    74    75    1
    46    23    22    2
    47    42    43    1
    48    42    41    1
    49    28    29    1
    50    44    43    2
    51    33    32    1
    52    79    82    1
    53    79    78    1
    54    77    75    1
    55    22    21    1
    56    71    70    1
    57    82    83    1
    58    41    37   am
    59    38    37    2
    60    40    39    1
    61    37    36    1
    62    29    32    1
    63    29    30    1
    64    32    34    1
    65    70    64   am
    66    21    20    1
    67    36    39    1
    68    36    35    1
    69    83    84    1
    70    83    85    1
    71    31    30    2
    72    65    64    2
    73   113   114   ar
    74   113   111   ar
    75    64    63    1
    76   114   112   ar
    77   111   110   ar
    78   112   110   ar
    79   110   109    1
    80   109   106    1
    81    63    62    1
    82    63    66    1
    83     8     6    1
    84    66    67    1
    85    67    69    1
    86    67    68    1
    87     7     6    1
    88   106   105    1
    89   106   107    1
    90     6     5    1
    91     5     2    1
    92     1     2    1
    93   107   108    2
    94    19    18   ar
    95    19    17   ar
    96     2     3    1
    97    18    16   ar
    98    17    15   ar
    99    16    14   ar
   100     3     4    2
   101    15    14   ar
   102    14    13    1
   103    13    10    1
   104     9    10    1
   105    10    11    1
   106    11    12    2
