@<TRIPOS>MOLECULE
tmp/1yasA00.pdb
 129 123 0 0 0
SMALL
GASTEIGER

@<TRIPOS>ATOM
      1  N         12.8470   48.1140   11.7270 N.3    10  THR10      -0.1203
      2  CA        12.1720   48.6340   12.9050 C.3    10  THR10       0.1994
      3  C         11.0740   49.5970   12.4360 C.2    10  THR10       0.2617
      4  O         10.9970   49.9780   11.2480 O.2    10  THR10      -0.2717
      5  CB        13.2200   49.3390   13.7780 C.3    10  THR10       0.1784
      6  OG1       12.6080   49.6170   15.0230 O.3    10  THR10      -0.2211
      7  CG2       13.7440   50.6340   13.1440 C.3    10  THR10       0.0376
      8  N         10.2940   50.0970   13.3920 N.am   11  ILE11      -0.1979
      9  CA         9.2200   50.9990   13.1070 C.3    11  ILE11       0.1595
     10  C          9.7300   52.2890   12.4710 C.2    11  ILE11       0.2287
     11  O         10.8820   52.7610   12.6260 O.2    11  ILE11      -0.2864
     12  CB         8.3990   51.3200   14.4010 C.3    11  ILE11       0.0276
     13  CG1        9.2770   51.9380   15.4810 C.3    11  ILE11       0.0022
     14  CG2        7.6870   50.0180   14.8540 C.3    11  ILE11       0.0022
     15  CD1        8.5050   52.8850   16.4130 C.3    11  ILE11       0.0001
     16  N         10.6890   52.5950    9.6200 N.3    13  HIS13      -0.1241
     17  CA        11.6220   52.3290    8.5410 C.3    13  HIS13       0.1621
     18  C         10.9870   51.3680    7.5430 C.2    13  HIS13       0.2264
     19  O          9.7860   51.1720    7.5090 O.2    13  HIS13      -0.2867
     20  CB        12.9280   51.7810    9.1460 C.3    13  HIS13       0.0745
     21  CG        13.6670   52.7720   10.0480 C.ar   13  HIS13       0.0817
     22  ND1       13.2450   53.4130   11.1420 N.ar   13  HIS13      -0.2268
     23  CD2       14.9630   53.1870    9.8290 C.ar   13  HIS13       0.1154
     24  CE1       14.2180   54.1750   11.5620 C.ar   13  HIS13       0.1986
     25  NE2       15.2430   54.0500   10.7850 N.ar   13  HIS13      -0.2212
     26  N         16.1800   46.6410   16.2850 N.3    79  SER79      -0.1202
     27  CA        15.4850   47.5660   17.1700 C.3    79  SER79       0.2020
     28  C         14.0500   47.1250   17.5130 C.2    79  SER79       0.2619
     29  O         14.0100   46.1090   18.2050 O.2    79  SER79      -0.2717
     30  CB        15.6280   48.9120   16.4540 C.3    79  SER79       0.2103
     31  OG        14.7570   49.8710   17.0260 O.3    79  SER79      -0.2182
     32  N         12.8580   47.6430   17.1420 N.am   80  CYS80      -0.1969
     33  CA        11.5770   47.0160   17.5070 C.3    80  CYS80       0.1712
     34  C         11.2130   45.7590   16.7310 C.2    80  CYS80       0.2296
     35  O         10.2110   45.1140   17.0230 O.2    80  CYS80      -0.2864
     36  CB        10.4220   48.0200   17.3760 C.3    80  CYS80       0.0983
     37  SG        10.8090   49.5300   18.3220 S.3    80  CYS80      -0.0798
     38  N         12.5630   50.4130   28.0290 N.3   120  LEU120     -0.1245
     39  CA        13.3240   51.3180   27.1590 C.3   120  LEU120      0.1561
     40  C         12.9340   52.7840   27.4190 C.2   120  LEU120      0.2260
     41  O         13.7990   53.6820   27.4800 O.2   120  LEU120     -0.2867
     42  CB        13.0720   50.9800   25.6580 C.3   120  LEU120      0.0270
     43  CG        13.6680   51.9150   24.5650 C.3   120  LEU120      0.0019
     44  CD1       15.1830   52.1870   24.7920 C.3   120  LEU120      0.0001
     45  CD2       13.3260   51.2700   23.2090 C.3   120  LEU120      0.0001
     46  N         13.1180   61.9170   23.6890 N.3   127  TRP127     -0.1241
     47  CA        13.0790   61.6140   22.2770 C.3   127  TRP127      0.1605
     48  C         13.2590   62.8280   21.3500 C.2   127  TRP127      0.2264
     49  O         12.8840   62.7740   20.1700 O.2   127  TRP127     -0.2867
     50  CB        11.7630   60.8940   22.0410 C.3   127  TRP127      0.0550
     51  CG        11.7390   59.4780   22.6370 C.ar  127  TRP127      0.0003
     52  CD1       11.7120   59.1960   24.0070 C.ar  127  TRP127      0.0946
     53  CD2       11.8570   58.3760   21.8870 C.ar  127  TRP127      0.0152
     54  NE1       11.8400   57.8900   24.0920 N.ar  127  TRP127     -0.2442
     55  CE2       11.9150   57.3540   22.8480 C.ar  127  TRP127      0.0810
     56  CE3       11.8990   58.1300   20.5190 C.ar  127  TRP127      0.0012
     57  CZ2       12.0520   56.0320   22.4290 C.ar  127  TRP127      0.0191
     58  CZ3       12.0350   56.8250   20.0990 C.ar  127  TRP127      0.0001
     59  CH2       12.1130   55.8000   21.0500 C.ar  127  TRP127      0.0015
     60  N          3.8960   58.1670   16.0580 N.3   145  LEU145     -0.1245
     61  CA         5.0490   59.0250   16.2090 C.3   145  LEU145      0.1561
     62  C          5.7230   59.2070   14.8710 C.2   145  LEU145      0.2260
     63  O          5.5870   58.3690   13.9570 O.2   145  LEU145     -0.2867
     64  CB         6.1150   58.4560   17.1660 C.3   145  LEU145      0.0270
     65  CG         6.9740   57.2080   16.8780 C.3   145  LEU145      0.0019
     66  CD1        8.0580   57.1390   17.9560 C.3   145  LEU145      0.0001
     67  CD2        6.1650   55.9150   16.9310 C.3   145  LEU145      0.0001
     68  N          9.6100   60.1860   14.0140 N.3   147  LEU147     -0.1245
     69  CA        10.9890   60.4140   14.4670 C.3   147  LEU147      0.1561
     70  C         11.5980   61.7540   14.0400 C.2   147  LEU147      0.2260
     71  O         11.5380   62.1810   12.8820 O.2   147  LEU147     -0.2867
     72  CB        11.8500   59.2240   13.9580 C.3   147  LEU147      0.0270
     73  CG        11.5110   57.8320   14.4990 C.3   147  LEU147      0.0019
     74  CD1       12.2970   56.7900   13.7580 C.3   147  LEU147      0.0001
     75  CD2       11.8250   57.7900   15.9850 C.3   147  LEU147      0.0001
     76  N         20.3010   57.5320   16.3940 N.3   156  LEU156     -0.1245
     77  CA        20.1100   56.3270   15.6100 C.3   156  LEU156      0.1561
     78  C         21.1330   56.1370   14.5210 C.2   156  LEU156      0.2260
     79  O         21.5870   55.0090   14.3330 O.2   156  LEU156     -0.2867
     80  CB        18.7550   56.3180   14.9690 C.3   156  LEU156      0.0270
     81  CG        17.4900   56.0920   15.7540 C.3   156  LEU156      0.0019
     82  CD1       17.1260   57.2460   16.6210 C.3   156  LEU156      0.0001
     83  CD2       16.3740   56.0740   14.7940 C.3   156  LEU156      0.0001
     84  N          4.3280   52.4970   18.1380 N.3   177  LEU177     -0.1245
     85  CA         4.7840   51.4020   18.9960 C.3   177  LEU177      0.1561
     86  C          3.5970   50.5840   19.4810 C.2   177  LEU177      0.2260
     87  O          3.7920   49.4740   19.9670 O.2   177  LEU177     -0.2867
     88  CB         5.5540   51.8970   20.2450 C.3   177  LEU177      0.0270
     89  CG         7.0250   52.2740   20.1220 C.3   177  LEU177      0.0019
     90  CD1        7.4490   53.0020   21.3830 C.3   177  LEU177      0.0001
     91  CD2        7.8630   51.0170   19.8700 C.3   177  LEU177      0.0001
     92  N         20.7180   54.9420   21.5800 N.3   208  ILE208     -0.1231
     93  CA        19.3170   55.0340   22.0590 C.3   208  ILE208      0.1692
     94  C         19.0810   53.8000   22.9140 C.2   208  ILE208      0.2592
     95  O         18.4280   53.9070   23.9410 O.2   208  ILE208     -0.2718
     96  CB        18.1300   54.8850   21.0760 C.3   208  ILE208      0.0266
     97  CG1       18.6190   55.2390   19.7810 C.3   208  ILE208      0.0019
     98  CG2       16.9330   55.7160   21.3680 C.3   208  ILE208      0.0020
     99  CD1       18.4010   53.8840   19.2380 C.3   208  ILE208      0.0001
    100  N         19.4800   52.6040   22.4240 N.am  209  PHE209     -0.1976
    101  CA        19.3980   51.3460   23.1710 C.3   209  PHE209      0.1639
    102  C         20.7210   51.2880   23.9180 C.2   209  PHE209      0.2290
    103  O         21.6590   50.5920   23.5390 O.2   209  PHE209     -0.2864
    104  CB        19.2900   50.0980   22.2480 C.3   209  PHE209      0.0560
    105  CG        17.9390   49.8350   21.6040 C.ar  209  PHE209     -0.0200
    106  CD1       17.1050   50.8840   21.1950 C.ar  209  PHE209     -0.0042
    107  CD2       17.5210   48.5210   21.4530 C.ar  209  PHE209     -0.0042
    108  CE1       15.8440   50.6330   20.6390 C.ar  209  PHE209     -0.0003
    109  CE2       16.2650   48.2610   20.9000 C.ar  209  PHE209     -0.0003
    110  CZ        15.4280   49.3180   20.4990 C.ar  209  PHE209     -0.0000
    111  N         23.9070   52.6320   16.4250 N.3   234  HIS234     -0.1226
    112  CA        22.6700   51.9050   16.4390 C.3   234  HIS234      0.1752
    113  C         22.4110   51.1370   15.1470 C.2   234  HIS234      0.2595
    114  O         21.9900   49.9750   15.2180 O.2   234  HIS234     -0.2718
    115  CB        21.5420   52.8770   16.7370 C.3   234  HIS234      0.0759
    116  CG        20.2120   52.1930   16.9800 C.ar  234  HIS234      0.0818
    117  ND1       19.8560   51.1980   17.8000 N.ar  234  HIS234     -0.2268
    118  CD2       19.0910   52.5330   16.2880 C.ar  234  HIS234      0.1154
    119  CE1       18.5920   50.9280   17.6500 C.ar  234  HIS234      0.1986
    120  NE2       18.2010   51.7140   16.7090 N.ar  234  HIS234     -0.2212
    121  N         22.6790   51.7090   13.9860 N.am  235  LYS235     -0.1980
    122  CA        22.4240   51.0190   12.7180 C.3   235  LYS235      0.1596
    123  C         23.6650   50.2550   12.2770 C.2   235  LYS235      0.2287
    124  O         24.3630   50.6540   11.3310 O.2   235  LYS235     -0.2864
    125  CB        22.0260   52.0220   11.6410 C.3   235  LYS235      0.0298
    126  CG        20.7580   52.7890   11.8920 C.3   235  LYS235      0.0038
    127  CD        19.6090   51.8610   12.1180 C.3   235  LYS235      0.0206
    128  CE        18.3000   52.5450   11.8250 C.3   235  LYS235      0.1093
    129  NZ        17.1300   51.8550   12.3150 N.3   235  LYS235     -0.1314
@<TRIPOS>BOND
     1    19    18    2
     2    18    17    1
     3    17    20    1
     4    17    16    1
     5    20    21    1
     6    23    21   ar
     7    23    25   ar
     8    21    22   ar
     9    25    24   ar
    10    22    24   ar
    11     4     3    2
    12   124   123    2
    13   125   126    1
    14   125   122    1
    15     1     2    1
    16   128   127    1
    17   128   129    1
    18   126   127    1
    19   123   122    1
    20     3     2    1
    21     3     8   am
    22    10    11    2
    23    10     9    1
    24   122   121    1
    25    71    70    2
    26     2     5    1
    27     9     8    1
    28     9    12    1
    29     7     5    1
    30    74    73    1
    31     5     6    1
    32    63    62    2
    33    72    69    1
    34    72    73    1
    35   121   113   am
    36    68    69    1
    37    70    69    1
    38    79    78    2
    39    12    14    1
    40    12    13    1
    41    73    75    1
    42    78    77    1
    43    83    81    1
    44    62    61    1
    45    80    77    1
    46    80    81    1
    47   113   114    2
    48   113   112    1
    49    13    15    1
    50    77    76    1
    51    81    82    1
    52    60    61    1
    53    61    64    1
    54    26    27    1
    55   118   120   ar
    56   118   116   ar
    57   111   112    1
    58   112   115    1
    59    30    31    1
    60    30    27    1
    61   120   119   ar
    62    34    35    2
    63    34    33    1
    64   115   116    1
    65    65    67    1
    66    65    64    1
    67    65    66    1
    68   116   117   ar
    69    32    33    1
    70    32    28   am
    71    27    28    1
    72    36    33    1
    73    36    37    1
    74    28    29    2
    75   119   117   ar
    76    84    85    1
    77    85    86    1
    78    85    88    1
    79    99    97    1
    80    86    87    2
    81    97    96    1
    82    91    89    1
    83    58    56   ar
    84    58    59   ar
    85    89    88    1
    86    89    90    1
    87    49    48    2
    88   110   108   ar
    89   110   109   ar
    90    56    53   ar
    91   108   106   ar
    92   109   107   ar
    93    59    57   ar
    94    96    98    1
    95    96    93    1
    96   106   105   ar
    97    48    47    1
    98   107   105   ar
    99    92    93    1
   100   105   104    1
   101    53    51   ar
   102    53    55   ar
   103    50    47    1
   104    50    51    1
   105    93    94    1
   106   104   101    1
   107    47    46    1
   108   100    94   am
   109   100   101    1
   110    57    55   ar
   111    51    52   ar
   112    55    54   ar
   113    94    95    2
   114   101   102    1
   115    45    43    1
   116   103   102    2
   117    52    54   ar
   118    43    44    1
   119    43    42    1
   120    42    39    1
   121    39    40    1
   122    39    38    1
   123    40    41    2
