@<TRIPOS>MOLECULE
tmp/1yatA00.pdb
 150 148 0 0 0
SMALL
GASTEIGER

@<TRIPOS>ATOM
      1  N         55.7780   32.0490   -6.7320 N.3    32  TYR32      -0.1241
      2  CA        56.5440   31.0790   -5.9710 C.3    32  TYR32       0.1605
      3  C         56.7880   29.8080   -6.7370 C.2    32  TYR32       0.2264
      4  O         56.1110   29.5290   -7.6950 O.2    32  TYR32      -0.2867
      5  CB        55.7140   30.7990   -4.6620 C.3    32  TYR32       0.0534
      6  CG        54.4460   30.0250   -4.8470 C.ar   32  TYR32      -0.0201
      7  CD1       54.4770   28.6260   -4.7990 C.ar   32  TYR32      -0.0009
      8  CD2       53.1980   30.6190   -4.9730 C.ar   32  TYR32      -0.0009
      9  CE1       53.3530   27.8300   -4.9440 C.ar   32  TYR32       0.0417
     10  CE2       52.0320   29.8450   -5.0950 C.ar   32  TYR32       0.0417
     11  CZ        52.1380   28.4580   -5.1070 C.ar   32  TYR32       0.1957
     12  OH        50.9700   27.7100   -5.2520 O.3    32  TYR32      -0.2866
     13  N         56.9670   20.4800   -6.2160 N.3    42  PHE42      -0.1227
     14  CA        55.5950   20.0360   -6.0090 C.3    42  PHE42       0.1736
     15  C         54.5910   21.0830   -6.4350 C.2    42  PHE42       0.2595
     16  O         53.3790   20.7680   -6.5250 O.2    42  PHE42      -0.2718
     17  CB        55.3670   19.6360   -4.5280 C.3    42  PHE42       0.0547
     18  CG        55.4900   20.7940   -3.5500 C.ar   42  PHE42      -0.0202
     19  CD1       54.4710   21.7030   -3.3960 C.ar   42  PHE42      -0.0042
     20  CD2       56.7030   20.9980   -2.8860 C.ar   42  PHE42      -0.0042
     21  CE1       54.6050   22.8090   -2.5240 C.ar   42  PHE42      -0.0003
     22  CE2       56.9080   22.0900   -2.0530 C.ar   42  PHE42      -0.0003
     23  CZ        55.8390   22.9740   -1.8690 C.ar   42  PHE42      -0.0000
     24  N         54.9680   22.3090   -6.6750 N.am   43  ASP43      -0.1974
     25  CA        54.0090   23.3630   -7.1140 C.3    43  ASP43       0.1709
     26  C         54.7370   24.6000   -7.5430 C.2    43  ASP43       0.2293
     27  O         55.8300   24.8480   -7.0430 O.2    43  ASP43      -0.2864
     28  CB        53.0350   23.6910   -5.9560 C.3    43  ASP43       0.1436
     29  CG        51.8700   24.5030   -6.4370 C.2    43  ASP43       0.3671
     30  OD1       51.6600   24.6260   -7.6600 O.co2  43  ASP43      -0.2456
     31  OD2       51.1020   25.0700   -5.6520 O.co2  43  ASP43      -0.2456
     32  N         51.5400   28.1450  -13.8210 N.3    48  ARG48      -0.1245
     33  CA        50.1360   28.4470  -13.9800 C.3    48  ARG48       0.1563
     34  C         50.0180   29.7850  -14.7310 C.2    48  ARG48       0.2260
     35  O         48.9270   30.0930  -15.1970 O.2    48  ARG48      -0.2867
     36  CB        49.3400   28.5740  -12.6560 C.3    48  ARG48       0.0307
     37  CG        48.9170   27.2080  -12.1110 C.3    48  ARG48       0.0489
     38  CD        47.8830   27.3910  -11.0510 C.3    48  ARG48       0.2205
     39  NE        48.4270   28.1500   -9.9270 N.pl3  48  ARG48      -0.0865
     40  CZ        49.2600   27.5230   -9.0470 C.cat  48  ARG48       0.5346
     41  NH1       49.6280   26.2500   -9.1180 N.pl3  48  ARG48       0.1354
     42  NH2       49.6930   28.2560   -8.0100 N.pl3  48  ARG48       0.1354
     43  N         50.1580   34.4310   -7.1350 N.3    52  PHE52      -0.1241
     44  CA        49.3400   34.1700   -5.9670 C.3    52  PHE52       0.1605
     45  C         49.1240   35.4760   -5.1790 C.2    52  PHE52       0.2264
     46  O         50.0160   36.3710   -5.1760 O.2    52  PHE52      -0.2867
     47  CB        49.9620   33.0820   -5.1100 C.3    52  PHE52       0.0534
     48  CG        49.3190   32.7250   -3.8070 C.ar   52  PHE52      -0.0203
     49  CD1       48.0790   32.0750   -3.7780 C.ar   52  PHE52      -0.0042
     50  CD2       49.9500   33.0030   -2.5970 C.ar   52  PHE52      -0.0042
     51  CE1       47.4780   31.6950   -2.5700 C.ar   52  PHE52      -0.0003
     52  CE2       49.3680   32.6710   -1.3950 C.ar   52  PHE52      -0.0003
     53  CZ        48.1410   32.0070   -1.3710 C.ar   52  PHE52      -0.0000
     54  N         46.7770   34.4040    9.1140 N.3    59  GLY59      -0.1210
     55  CA        46.4360   32.9830    9.0580 C.3    59  GLY59       0.1956
     56  C         45.8450   32.4620    7.8120 C.2    59  GLY59       0.2612
     57  O         45.2120   31.3860    7.8860 O.2    59  GLY59      -0.2717
     58  N         46.0050   33.1230    6.6590 N.am   60  GLN60      -0.1965
     59  CA        45.5200   32.6470    5.3710 C.3    60  GLN60       0.1733
     60  C         46.4710   31.6060    4.8070 C.2    60  GLN60       0.2616
     61  O         45.9550   30.6730    4.1560 O.2    60  GLN60      -0.2715
     62  CB        45.2660   33.7170    4.3200 C.3    60  GLN60       0.0408
     63  CG        44.0640   34.6310    4.6300 C.3    60  GLN60       0.0908
     64  CD        43.8850   35.6750    3.5670 C.2    60  GLN60       0.2608
     65  OE1       43.0340   36.5610    3.6110 O.2    60  GLN60      -0.2717
     66  NE2       44.6580   35.6140    2.4930 N.am   60  GLN60      -0.0878
     67  N         47.7470   31.6700    5.0770 N.am   61  VAL61      -0.1963
     68  CA        48.7760   30.7230    4.5610 C.3    61  VAL61       0.1727
     69  C         49.5590   30.1130    5.7230 C.2    61  VAL61       0.2616
     70  O         49.3310   30.5500    6.8750 O.2    61  VAL61      -0.2715
     71  CB        49.6670   31.5470    3.6120 C.3    61  VAL61       0.0290
     72  CG1       48.8990   32.1170    2.4180 C.3    61  VAL61       0.0023
     73  CG2       50.3340   32.6680    4.3770 C.3    61  VAL61       0.0023
     74  N         50.3650   29.1160    5.5170 N.am   62  ILE62      -0.1977
     75  CA        51.1820   28.4100    6.5410 C.3    62  ILE62       0.1596
     76  C         52.0400   29.5010    7.1900 C.2    62  ILE62       0.2287
     77  O         52.3170   30.5150    6.5390 O.2    62  ILE62      -0.2864
     78  CB        52.0350   27.2960    5.8100 C.3    62  ILE62       0.0276
     79  CG1       52.8990   27.9670    4.7280 C.3    62  ILE62       0.0022
     80  CG2       51.0960   26.2380    5.2220 C.3    62  ILE62       0.0022
     81  CD1       53.9970   27.1100    4.0100 C.3    62  ILE62       0.0001
     82  N         55.1760   31.3760    5.7200 N.3    65  TRP65      -0.1241
     83  CA        54.8430   32.4140    4.7790 C.3    65  TRP65       0.1605
     84  C         54.5210   33.6800    5.6060 C.2    65  TRP65       0.2264
     85  O         54.9820   34.7360    5.2040 O.2    65  TRP65      -0.2867
     86  CB        53.6990   32.0580    3.8230 C.3    65  TRP65       0.0550
     87  CG        54.2050   31.4990    2.5270 C.ar   65  TRP65       0.0003
     88  CD1       54.9980   30.4010    2.3530 C.ar   65  TRP65       0.0946
     89  CD2       53.8990   31.9920    1.2090 C.ar   65  TRP65       0.0152
     90  NE1       55.2070   30.1960    1.0300 N.ar   65  TRP65      -0.2442
     91  CE2       54.5830   31.1730    0.2980 C.ar   65  TRP65       0.0810
     92  CE3       53.1460   33.0840    0.7470 C.ar   65  TRP65       0.0012
     93  CZ2       54.5440   31.3800   -1.0730 C.ar   65  TRP65       0.0191
     94  CZ3       53.1080   33.2880   -0.6110 C.ar   65  TRP65       0.0001
     95  CH2       53.7780   32.4420   -1.5020 C.ar   65  TRP65       0.0015
     96  N         54.9980   24.8100    8.5210 N.3    87  ALA87      -0.1231
     97  CA        54.4350   24.3710    7.2810 C.3    87  ALA87       0.1694
     98  C         53.3020   23.3720    7.5090 C.2    87  ALA87       0.2592
     99  O         52.3190   23.7920    8.1560 O.2    87  ALA87      -0.2718
    100  CB        55.4650   23.7570    6.3240 C.3    87  ALA87       0.0304
    101  N         53.4040   22.1670    7.0370 N.am   88  TYR88      -0.1976
    102  CA        52.2940   21.1750    7.1700 C.3    88  TYR88       0.1639
    103  C         52.5490   20.1690    8.2710 C.2    88  TYR88       0.2290
    104  O         51.7480   19.2270    8.4370 O.2    88  TYR88      -0.2864
    105  CB        52.0310   20.4450    5.7890 C.3    88  TYR88       0.0560
    106  CG        51.5310   21.4180    4.7680 C.ar   88  TYR88      -0.0198
    107  CD1       50.1930   21.8010    4.6780 C.ar   88  TYR88      -0.0009
    108  CD2       52.4450   22.1350    3.9970 C.ar   88  TYR88      -0.0009
    109  CE1       49.7450   22.7830    3.7850 C.ar   88  TYR88       0.0417
    110  CE2       52.0420   23.1410    3.1170 C.ar   88  TYR88       0.0417
    111  CZ        50.7160   23.4450    3.0050 C.ar   88  TYR88       0.1957
    112  OH        50.3760   24.4570    2.1650 O.3    88  TYR88      -0.2866
    113  N         50.3330   17.0860    3.0020 N.3    93  PHE93      -0.1241
    114  CA        49.2750   17.4200    2.0030 C.3    93  PHE93       0.1605
    115  C         49.2420   16.2670    1.0020 C.2    93  PHE93       0.2264
    116  O         50.2990   15.8220    0.5070 O.2    93  PHE93      -0.2867
    117  CB        49.5160   18.8050    1.3870 C.3    93  PHE93       0.0534
    118  CG        48.2620   19.2910    0.7230 C.ar   93  PHE93      -0.0203
    119  CD1       47.9380   18.8470   -0.5660 C.ar   93  PHE93      -0.0042
    120  CD2       47.3750   20.0900    1.4490 C.ar   93  PHE93      -0.0042
    121  CE1       46.7520   19.2300   -1.1830 C.ar   93  PHE93      -0.0003
    122  CE2       46.1890   20.4920    0.8290 C.ar   93  PHE93      -0.0003
    123  CZ        45.8970   20.0590   -0.4730 C.ar   93  PHE93      -0.0000
    124  N         51.4050   15.7170   -2.3060 N.3    96  LEU96      -0.1231
    125  CA        52.3510   16.8040   -2.6200 C.3    96  LEU96       0.1693
    126  C         53.5070   16.8620   -1.6410 C.2    96  LEU96       0.2591
    127  O         54.6690   16.9870   -2.0260 O.2    96  LEU96      -0.2718
    128  CB        51.5290   18.1220   -2.6700 C.3    96  LEU96       0.0284
    129  CG        50.6670   18.4080   -3.8510 C.3    96  LEU96       0.0019
    130  CD1       50.0310   19.7630   -3.9170 C.3    96  LEU96       0.0001
    131  CD2       51.5510   18.2960   -5.1050 C.3    96  LEU96       0.0001
    132  N         53.1110   16.7820   -0.3650 N.am   97  ILE97      -0.1980
    133  CA        54.0020   16.9110    0.7710 C.3    97  ILE97       0.1595
    134  C         53.8120   15.9090    1.8690 C.2    97  ILE97       0.2287
    135  O         52.7250   15.9070    2.5080 O.2    97  ILE97      -0.2864
    136  CB        53.5630   18.3580    1.3910 C.3    97  ILE97       0.0276
    137  CG1       53.9770   19.4060    0.3430 C.3    97  ILE97       0.0022
    138  CG2       54.1680   18.5190    2.8000 C.3    97  ILE97       0.0022
    139  CD1       53.2300   20.7220    0.3030 C.3    97  ILE97       0.0001
    140  N         60.8710   27.5040   -0.6550 N.3   105  PHE105     -0.1241
    141  CA        60.0510   28.3730   -1.4990 C.3   105  PHE105      0.1605
    142  C         60.9390   29.4720   -2.1160 C.2   105  PHE105      0.2264
    143  O         61.6450   30.2040   -1.4160 O.2   105  PHE105     -0.2867
    144  CB        58.8750   28.9470   -0.7170 C.3   105  PHE105      0.0534
    145  CG        57.6790   28.0730   -0.5150 C.ar  105  PHE105     -0.0203
    146  CD1       56.7320   27.9070   -1.5610 C.ar  105  PHE105     -0.0042
    147  CD2       57.4300   27.4690    0.7140 C.ar  105  PHE105     -0.0042
    148  CE1       55.6340   27.0900   -1.3990 C.ar  105  PHE105     -0.0003
    149  CE2       56.3320   26.6360    0.9090 C.ar  105  PHE105     -0.0003
    150  CZ        55.4430   26.4260   -0.1630 C.ar  105  PHE105     -0.0000
@<TRIPOS>BOND
     1    35    34    2
     2    34    33    1
     3    33    32    1
     4    33    36    1
     5    36    37    1
     6    37    38    1
     7    38    39    1
     8    39    40    2
     9    41    40    1
    10    40    42    1
    11     4     3    2
    12    30    29   ar
    13    26    25    1
    14    26    27    2
    15    43    44    1
    16    25    24    1
    17    25    28    1
    18     3     2    1
    19     1     2    1
    20    24    15   am
    21    16    15    2
    22    29    28    1
    23    29    31   ar
    24    15    14    1
    25    13    14    1
    26    14    17    1
    27     2     5    1
    28    44    45    1
    29    44    47    1
    30    12    11    1
    31    45    46    2
    32    47    48    1
    33    11    10   ar
    34    11     9   ar
    35   131   129    1
    36    10     8   ar
    37     8     6   ar
    38     9     7   ar
    39     6     7   ar
    40     6     5    1
    41    17    18    1
    42   130   129    1
    43   129   128    1
    44    48    49   ar
    45    48    50   ar
    46    49    51   ar
    47    18    19   ar
    48    18    20   ar
    49    19    21   ar
    50    20    22   ar
    51   128   125    1
    52   125   124    1
    53   125   126    1
    54    50    52   ar
    55    51    53   ar
    56    21    23   ar
    57   142   141    1
    58   142   143    2
    59    22    23   ar
    60   127   126    2
    61   126   132   am
    62   146   148   ar
    63   146   145   ar
    64    95    93   ar
    65    95    94   ar
    66   141   144    1
    67   141   140    1
    68   148   150   ar
    69    52    53   ar
    70   121   119   ar
    71   121   123   ar
    72    93    91   ar
    73   144   145    1
    74    94    92   ar
    75   119   118   ar
    76   145   147   ar
    77   123   122   ar
    78   132   133    1
    79   150   149   ar
    80    91    90   ar
    81    91    89   ar
    82   139   137    1
    83   137   136    1
    84   116   115    2
    85   147   149   ar
    86   118   117    1
    87   118   120   ar
    88    92    89   ar
    89   133   136    1
    90   133   134    1
    91   122   120   ar
    92   115   114    1
    93    90    88   ar
    94    89    87   ar
    95   117   114    1
    96   136   138    1
    97   134   135    2
    98   114   113    1
    99   112   111    1
   100    88    87   ar
   101    72    71    1
   102    66    64   am
   103    87    86    1
   104   111   110   ar
   105   111   109   ar
   106   110   108   ar
   107    64    65    2
   108    64    63    1
   109    71    73    1
   110    71    68    1
   111   109   107   ar
   112    86    83    1
   113   108   106   ar
   114    81    79    1
   115    61    60    2
   116    62    63    1
   117    62    59    1
   118    68    67    1
   119    68    69    1
   120   107   106   ar
   121    79    78    1
   122   106   105    1
   123    83    84    1
   124    83    82    1
   125    60    67   am
   126    60    59    1
   127    85    84    2
   128    80    78    1
   129    59    58    1
   130    74    69   am
   131    74    75    1
   132    69    70    2
   133   105   102    1
   134    78    75    1
   135   100    97    1
   136    77    76    2
   137    75    76    1
   138    58    56   am
   139   101   102    1
   140   101    98   am
   141   102   103    1
   142    97    98    1
   143    97    96    1
   144    98    99    2
   145    56    57    2
   146    56    55    1
   147   103   104    2
   148    55    54    1
