@<TRIPOS>MOLECULE
tmp/1yb1A00.pdb
 101 95 0 0 0
SMALL
GASTEIGER

@<TRIPOS>ATOM
      1  N         11.1350  -29.3800    9.0070 N.3   120  PHE120     -0.1241
      2  CA        11.9800  -30.3260    8.2880 C.3   120  PHE120      0.1605
      3  C         11.6160  -30.3990    6.8070 C.2   120  PHE120      0.2264
      4  O         12.4970  -30.3960    5.9350 O.2   120  PHE120     -0.2867
      5  CB        11.8930  -31.7390    8.9030 C.3   120  PHE120      0.0534
      6  CG        12.6530  -31.8810   10.1740 C.ar  120  PHE120     -0.0203
      7  CD1       13.9290  -32.4600   10.1810 C.ar  120  PHE120     -0.0042
      8  CD2       12.1270  -31.4130   11.3590 C.ar  120  PHE120     -0.0042
      9  CE1       14.6530  -32.5540   11.3430 C.ar  120  PHE120     -0.0003
     10  CE2       12.8470  -31.5220   12.5480 C.ar  120  PHE120     -0.0003
     11  CZ        14.1120  -32.1060   12.5360 C.ar  120  PHE120     -0.0000
     12  N         12.3840  -27.0900    4.9160 N.3   123  THR123     -0.1203
     13  CA        13.8310  -26.9470    4.7990 C.3   123  THR123      0.1994
     14  C         14.3870  -27.9200    3.7560 C.2   123  THR123      0.2617
     15  O         15.1920  -27.5310    2.9130 O.2   123  THR123     -0.2717
     16  CB        14.5380  -27.0930    6.1830 C.3   123  THR123      0.1784
     17  OG1       14.0460  -26.0800    7.0710 O.3   123  THR123     -0.2211
     18  CG2       16.0380  -26.9520    6.0710 C.3   123  THR123      0.0376
     19  N         13.9380  -29.1710    3.7880 N.am  124  LYS124     -0.1979
     20  CA        14.3290  -30.1340    2.7600 C.3   124  LYS124      0.1596
     21  C         13.9380  -29.6730    1.3550 C.2   124  LYS124      0.2287
     22  O         14.6930  -29.8630    0.4090 O.2   124  LYS124     -0.2864
     23  CB        13.7590  -31.5340    3.0540 C.3   124  LYS124      0.0298
     24  CG        14.5230  -32.3040    4.1360 C.3   124  LYS124      0.0038
     25  CD        14.0690  -33.7550    4.2590 C.3   124  LYS124      0.0206
     26  CE        14.3090  -34.5510    2.9760 C.3   124  LYS124      0.1093
     27  NZ        14.1720  -36.0190    3.2040 N.3   124  LYS124     -0.1314
     28  N         16.0520  -25.5180    1.1680 N.3   127  LEU127     -0.1231
     29  CA        17.4900  -25.3450    1.4730 C.3   127  LEU127      0.1678
     30  C         18.4800  -25.7940    0.3650 C.2   127  LEU127      0.2434
     31  O         19.5280  -25.1600    0.1950 O.2   127  LEU127     -0.2733
     32  CB        17.8320  -26.0080    2.8040 C.3   127  LEU127      0.0284
     33  CG        19.2610  -25.8630    3.3260 C.3   127  LEU127      0.0019
     34  CD1       19.6770  -24.4200    3.4130 C.3   127  LEU127      0.0001
     35  CD2       19.3830  -26.5500    4.6810 C.3   127  LEU127      0.0001
     36  N         18.1850  -26.8840   -0.3690 N.am  128  PRO128     -0.2729
     37  CA        19.1420  -27.2540   -1.4400 C.3   128  PRO128      0.1401
     38  C         19.4620  -26.1360   -2.4390 C.2   128  PRO128      0.2269
     39  O         20.6340  -25.9090   -2.7250 O.2   128  PRO128     -0.2865
     40  CB        18.4840  -28.4620   -2.1200 C.3   128  PRO128      0.0296
     41  CG        17.5880  -29.0490   -1.0610 C.3   128  PRO128      0.0237
     42  CD        17.0900  -27.8690   -0.2490 C.3   128  PRO128      0.0939
     43  N         21.5960  -23.4800   -0.7290 N.3   131  THR131     -0.1218
     44  CA        22.9640  -23.9460   -0.5750 C.3   131  THR131      0.1862
     45  C         23.7280  -23.8100   -1.8890 C.2   131  THR131      0.2287
     46  O         24.8550  -23.2920   -1.9170 O.2   131  THR131     -0.2866
     47  CB        22.9720  -25.4000   -0.0730 C.3   131  THR131      0.1770
     48  OG1       22.3200  -25.4430    1.1960 O.3   131  THR131     -0.2211
     49  CG2       24.3830  -25.9190    0.0820 C.3   131  THR131      0.0375
     50  N         15.8350  -27.2720   16.6480 N.3   165  PHE165     -0.1241
     51  CA        15.9540  -27.3880   15.2030 C.3   165  PHE165      0.1605
     52  C         16.8140  -26.2210   14.6830 C.2   165  PHE165      0.2264
     53  O         17.8110  -26.4220   13.9920 O.2   165  PHE165     -0.2867
     54  CB        14.5600  -27.3960   14.5730 C.3   165  PHE165      0.0534
     55  CG        14.5590  -27.3970   13.0760 C.ar  165  PHE165     -0.0203
     56  CD1       14.5220  -28.5900   12.3650 C.ar  165  PHE165     -0.0042
     57  CD2       14.5490  -26.2210   12.3760 C.ar  165  PHE165     -0.0042
     58  CE1       14.5210  -28.5910   10.9890 C.ar  165  PHE165     -0.0003
     59  CE2       14.5630  -26.2200   11.0040 C.ar  165  PHE165     -0.0003
     60  CZ        14.5210  -27.3960   10.3110 C.ar  165  PHE165     -0.0000
     61  N         20.5450  -26.7790   13.1450 N.3   169  LEU169     -0.1245
     62  CA        20.6900  -26.3840   11.7310 C.3   169  LEU169      0.1561
     63  C         21.7190  -25.2730   11.5470 C.2   169  LEU169      0.2260
     64  O         22.5440  -25.3280   10.6340 O.2   169  LEU169     -0.2867
     65  CB        19.3530  -25.9340   11.1620 C.3   169  LEU169      0.0270
     66  CG        19.3500  -25.4470    9.7150 C.3   169  LEU169      0.0019
     67  CD1       19.7530  -26.5310    8.7120 C.3   169  LEU169      0.0001
     68  CD2       17.9930  -24.9100    9.3790 C.3   169  LEU169      0.0001
     69  N         25.0590  -26.8720   11.7720 N.3   172  GLU172     -0.1231
     70  CA        25.3220  -27.7240   10.6160 C.3   172  GLU172      0.1699
     71  C         25.7620  -26.8760    9.4240 C.2   172  GLU172      0.2592
     72  O         26.7160  -27.2270    8.7240 O.2   172  GLU172     -0.2718
     73  CB        24.1020  -28.5570   10.2310 C.3   172  GLU172      0.0402
     74  CG        23.7800  -29.6710   11.1940 C.3   172  GLU172      0.1161
     75  CD        22.6360  -30.5410   10.7010 C.2   172  GLU172      0.3649
     76  OE1       21.5510  -29.9830   10.4900 O.co2 172  GLU172     -0.2457
     77  OE2       22.8210  -31.7740   10.5630 O.co2 172  GLU172     -0.2457
     78  N         25.0630  -25.7590    9.1910 N.am  173  LEU173     -0.1980
     79  CA        25.4210  -24.8510    8.0930 C.3   173  LEU173      0.1596
     80  C         26.8360  -24.3160    8.2760 C.2   173  LEU173      0.2287
     81  O         27.6470  -24.3140    7.3300 O.2   173  LEU173     -0.2864
     82  CB        24.4180  -23.6940    8.0000 C.3   173  LEU173      0.0297
     83  CG        23.0030  -24.0620    7.5320 C.3   173  LEU173      0.0022
     84  CD1       22.0780  -22.8600    7.7500 C.3   173  LEU173      0.0001
     85  CD2       23.0020  -24.5050    6.0910 C.3   173  LEU173      0.0001
     86  N         29.4460  -27.0320    7.6520 N.3   176  LEU176     -0.1245
     87  CA        29.5530  -27.2630    6.2270 C.3   176  LEU176      0.1561
     88  C         30.0710  -26.0450    5.4350 C.2   176  LEU176      0.2260
     89  O         30.1590  -26.1040    4.2060 O.2   176  LEU176     -0.2867
     90  CB        28.1940  -27.7260    5.6900 C.3   176  LEU176      0.0270
     91  CG        27.7240  -29.0660    6.2380 C.3   176  LEU176      0.0019
     92  CD1       26.3020  -29.3180    5.8050 C.3   176  LEU176      0.0001
     93  CD2       28.6630  -30.1950    5.7860 C.3   176  LEU176      0.0001
     94  N         28.5940  -23.2690    4.8020 N.3   178  ILE178     -0.1245
     95  CA        27.5470  -22.6820    3.9820 C.3   178  ILE178      0.1561
     96  C         27.2910  -21.2950    4.5690 C.2   178  ILE178      0.2260
     97  O         26.3150  -21.0510    5.2940 O.2   178  ILE178     -0.2867
     98  CB        26.3010  -23.5870    3.9610 C.3   178  ILE178      0.0252
     99  CG1       26.6740  -24.9560    3.3580 C.3   178  ILE178      0.0019
    100  CG2       25.1820  -22.9330    3.1650 C.3   178  ILE178      0.0019
    101  CD1       25.6400  -26.0440    3.5680 C.3   178  ILE178      0.0001
@<TRIPOS>BOND
     1    39    38    2
     2    38    37    1
     3    40    37    1
     4    40    41    1
     5    46    45    2
     6    45    44    1
     7    37    36    1
     8    41    42    1
     9    43    44    1
    10    44    47    1
    11    36    42    1
    12    36    30   am
    13    47    49    1
    14    47    48    1
    15    31    30    2
    16    30    29    1
    17    22    21    2
    18    28    29    1
    19    21    20    1
    20    29    32    1
    21    20    23    1
    22    20    19    1
    23    32    33    1
    24    15    14    2
    25    26    27    1
    26    26    25    1
    27    23    24    1
    28   100    98    1
    29    33    34    1
    30    33    35    1
    31    99   101    1
    32    99    98    1
    33    14    19   am
    34    14    13    1
    35    98    95    1
    36    95    96    1
    37    95    94    1
    38    24    25    1
    39    89    88    2
    40    96    97    2
    41    13    12    1
    42    13    16    1
    43    88    87    1
    44    90    87    1
    45    90    91    1
    46    93    91    1
    47    92    91    1
    48     4     3    2
    49    18    16    1
    50    85    83    1
    51    16    17    1
    52    87    86    1
    53     3     2    1
    54    81    80    2
    55    83    84    1
    56    83    82    1
    57    82    79    1
    58    79    80    1
    59    79    78    1
    60     2     5    1
    61     2     1    1
    62    67    66    1
    63    72    71    2
    64     5     6    1
    65    78    71   am
    66    68    66    1
    67    71    70    1
    68    66    65    1
    69     6     7   ar
    70     6     8   ar
    71     7     9   ar
    72    73    70    1
    73    73    74    1
    74    60    58   ar
    75    60    59   ar
    76    76    75   ar
    77    77    75   ar
    78    70    69    1
    79    64    63    2
    80    75    74    1
    81    58    56   ar
    82    59    57   ar
    83    65    62    1
    84     9    11   ar
    85     8    10   ar
    86    63    62    1
    87    62    61    1
    88    56    55   ar
    89    57    55   ar
    90    11    10   ar
    91    55    54    1
    92    53    52    2
    93    54    51    1
    94    52    51    1
    95    51    50    1
