@<TRIPOS>MOLECULE
tmp/1yb6A00.pdb
 121 116 0 0 0
SMALL
GASTEIGER

@<TRIPOS>ATOM
      1  N         13.0060   47.0680   11.6980 N.3    10  THR10      -0.1203
      2  CA        12.3340   47.5900   12.8810 C.3    10  THR10       0.1994
      3  C         11.2250   48.5810   12.5160 C.2    10  THR10       0.2617
      4  O         11.0260   48.9090   11.3400 O.2    10  THR10      -0.2717
      5  CB        13.3430   48.2830   13.8010 C.3    10  THR10       0.1784
      6  OG1       12.7310   48.5430   15.0700 O.3    10  THR10      -0.2211
      7  CG2       13.8060   49.6000   13.1790 C.3    10  THR10       0.0376
      8  N         10.5020   49.0630   13.5210 N.am   11  ILE11      -0.1979
      9  CA         9.4220   50.0010   13.2440 C.3    11  ILE11       0.1595
     10  C          9.9370   51.2510   12.5420 C.2    11  ILE11       0.2287
     11  O         11.0760   51.6800   12.7600 O.2    11  ILE11      -0.2864
     12  CB         8.6600   50.4150   14.5330 C.3    11  ILE11       0.0276
     13  CG1        9.5910   51.1370   15.5070 C.3    11  ILE11       0.0022
     14  CG2        8.0290   49.1820   15.1760 C.3    11  ILE11       0.0022
     15  CD1        8.8630   51.7430   16.6940 C.3    11  ILE11       0.0001
     16  N         10.8970   51.5740    9.6970 N.3    13  HIS13      -0.1241
     17  CA        11.8900   51.2430    8.6820 C.3    13  HIS13       0.1621
     18  C         11.2990   50.2710    7.6630 C.2    13  HIS13       0.2264
     19  O         10.0940   50.0250    7.6560 O.2    13  HIS13      -0.2867
     20  CB        13.1360   50.6360    9.3420 C.3    13  HIS13       0.0745
     21  CG        13.9670   51.6310   10.0930 C.ar   13  HIS13       0.0817
     22  ND1       13.5120   52.2940   11.2130 N.ar   13  HIS13      -0.2268
     23  CD2       15.2230   52.0880    9.8700 C.ar   13  HIS13       0.1154
     24  CE1       14.4510   53.1170   11.6470 C.ar   13  HIS13       0.1986
     25  NE2       15.4990   53.0110   10.8500 N.ar   13  HIS13      -0.2212
     26  N         16.3960   45.7150   16.2540 N.3    79  SER79      -0.1202
     27  CA        15.6670   46.6020   17.1480 C.3    79  SER79       0.2020
     28  C         14.3170   46.0460   17.6190 C.2    79  SER79       0.2619
     29  O         14.2850   45.1440   18.4460 O.2    79  SER79      -0.2717
     30  CB        15.5030   47.9560   16.4510 C.3    79  SER79       0.2103
     31  OG        15.2700   48.9920   17.3830 O.3    79  SER79      -0.2182
     32  N         13.2050   46.5700   17.1120 N.am   80  CYS80      -0.1969
     33  CA        11.9020   46.0720   17.5430 C.3    80  CYS80       0.1712
     34  C         11.5010   44.7780   16.8420 C.2    80  CYS80       0.2296
     35  O         10.4770   44.1680   17.1790 O.2    80  CYS80      -0.2864
     36  CB        10.8290   47.1420   17.3210 C.3    80  CYS80       0.0983
     37  SG        11.0130   48.5780   18.3950 S.3    80  CYS80      -0.0798
     38  N         12.5270   49.4240   28.0560 N.3   120  LEU120     -0.1245
     39  CA        13.2550   50.2870   27.1330 C.3   120  LEU120      0.1561
     40  C         12.8630   51.7460   27.3380 C.2   120  LEU120      0.2260
     41  O         13.7220   52.6290   27.3580 O.2   120  LEU120     -0.2867
     42  CB        12.9700   49.8770   25.6820 C.3   120  LEU120      0.0270
     43  CG        13.4690   50.8340   24.5910 C.3   120  LEU120      0.0019
     44  CD1       14.9780   50.9680   24.6820 C.3   120  LEU120      0.0001
     45  CD2       13.0560   50.3160   23.2200 C.3   120  LEU120      0.0001
     46  N         13.0330   60.7460   23.3610 N.3   127  TRP127     -0.1241
     47  CA        13.2110   60.4400   21.9470 C.3   127  TRP127      0.1605
     48  C         13.4470   61.6940   21.1060 C.2   127  TRP127      0.2264
     49  O         13.2020   61.7160   19.9000 O.2   127  TRP127     -0.2867
     50  CB        12.0080   59.6380   21.4400 C.3   127  TRP127      0.0550
     51  CG        11.9730   58.2400   22.0100 C.ar  127  TRP127      0.0003
     52  CD1       12.2760   57.8700   23.2920 C.ar  127  TRP127      0.0946
     53  CD2       11.6010   57.0360   21.3250 C.ar  127  TRP127      0.0152
     54  NE1       12.1170   56.5150   23.4470 N.ar  127  TRP127     -0.2442
     55  CE2       11.7020   55.9780   22.2570 C.ar  127  TRP127      0.0810
     56  CE3       11.1900   56.7490   20.0160 C.ar  127  TRP127      0.0012
     57  CZ2       11.4080   54.6510   21.9210 C.ar  127  TRP127      0.0191
     58  CZ3       10.8970   55.4280   19.6810 C.ar  127  TRP127      0.0001
     59  CH2       11.0080   54.3970   20.6340 C.ar  127  TRP127      0.0015
     60  N          9.9260   59.0100   13.7460 N.3   147  LEU147     -0.1245
     61  CA        11.2570   59.2220   14.2930 C.3   147  LEU147      0.1561
     62  C         11.8480   60.5620   13.8860 C.2   147  LEU147      0.2260
     63  O         11.8550   60.9200   12.7090 O.2   147  LEU147     -0.2867
     64  CB        12.1850   58.0880   13.8570 C.3   147  LEU147      0.0270
     65  CG        11.7160   56.7020   14.3010 C.3   147  LEU147      0.0019
     66  CD1       12.6240   55.6400   13.7080 C.3   147  LEU147      0.0001
     67  CD2       11.7130   56.6270   15.8180 C.3   147  LEU147      0.0001
     68  N         17.1710   62.4930   16.2850 N.3   151  LEU151     -0.1245
     69  CA        17.2890   61.2150   16.9770 C.3   151  LEU151      0.1561
     70  C         17.9260   60.2130   16.0210 C.2   151  LEU151      0.2260
     71  O         18.8020   59.4400   16.4050 O.2   151  LEU151     -0.2867
     72  CB        15.9140   60.6940   17.4070 C.3   151  LEU151      0.0270
     73  CG        15.9500   59.3540   18.1490 C.3   151  LEU151      0.0019
     74  CD1       16.5020   59.5470   19.5580 C.3   151  LEU151      0.0001
     75  CD2       14.5540   58.7690   18.2140 C.3   151  LEU151      0.0001
     76  N         20.4760   56.5930   16.3560 N.3   156  LEU156     -0.1245
     77  CA        20.2770   55.3830   15.5650 C.3   156  LEU156      0.1561
     78  C         21.3390   55.1450   14.5020 C.2   156  LEU156      0.2260
     79  O         21.8230   54.0230   14.3510 O.2   156  LEU156     -0.2867
     80  CB        18.8910   55.3960   14.9140 C.3   156  LEU156      0.0270
     81  CG        17.6920   55.0440   15.8020 C.3   156  LEU156      0.0019
     82  CD1       17.6250   55.9710   17.0010 C.3   156  LEU156      0.0001
     83  CD2       16.4180   55.1460   14.9800 C.3   156  LEU156      0.0001
     84  N         21.0350   54.0140   21.5250 N.3   208  ILE208     -0.1231
     85  CA        19.6160   54.0440   21.8590 C.3   208  ILE208      0.1692
     86  C         19.2830   52.8240   22.7150 C.2   208  ILE208      0.2592
     87  O         18.6130   52.9410   23.7390 O.2   208  ILE208     -0.2718
     88  CB        18.7090   54.0920   20.6000 C.3   208  ILE208      0.0266
     89  CG1       17.2440   54.1140   21.0370 C.3   208  ILE208      0.0019
     90  CG2       18.9950   52.9110   19.6840 C.3   208  ILE208      0.0020
     91  CD1       16.2970   54.7240   20.0240 C.3   208  ILE208      0.0001
     92  N         19.7700   51.6560   22.3030 N.am  209  PHE209     -0.1976
     93  CA        19.5470   50.4280   23.0720 C.3   209  PHE209      0.1639
     94  C         20.8470   50.3520   23.8760 C.2   209  PHE209      0.2290
     95  O         21.7730   49.6140   23.5390 O.2   209  PHE209     -0.2864
     96  CB        19.3990   49.2060   22.1520 C.3   209  PHE209      0.0560
     97  CG        17.9920   48.9760   21.6590 C.ar  209  PHE209     -0.0200
     98  CD1       17.1590   50.0460   21.3450 C.ar  209  PHE209     -0.0042
     99  CD2       17.5110   47.6840   21.4800 C.ar  209  PHE209     -0.0042
    100  CE1       15.8680   49.8320   20.8590 C.ar  209  PHE209     -0.0003
    101  CE2       16.2220   47.4590   20.9940 C.ar  209  PHE209     -0.0003
    102  CZ        15.4000   48.5330   20.6820 C.ar  209  PHE209     -0.0000
    103  N         23.9740   51.4620   16.4930 N.3   234  HIS234     -0.1226
    104  CA        22.7180   50.7180   16.5280 C.3   234  HIS234      0.1752
    105  C         22.4590   49.9620   15.2250 C.2   234  HIS234      0.2595
    106  O         21.9050   48.8610   15.2390 O.2   234  HIS234     -0.2718
    107  CB        21.5530   51.6700   16.8160 C.3   234  HIS234      0.0759
    108  CG        20.2360   50.9820   17.0010 C.ar  234  HIS234      0.0818
    109  ND1       20.0220   50.0300   17.9750 N.ar  234  HIS234     -0.2268
    110  CD2       19.0540   51.1290   16.3550 C.ar  234  HIS234      0.1154
    111  CE1       18.7670   49.6230   17.9230 C.ar  234  HIS234      0.1986
    112  NE2       18.1580   50.2740   16.9490 N.ar  234  HIS234     -0.2212
    113  N         22.8530   50.5530   14.1010 N.am  235  LYS235     -0.1980
    114  CA        22.6450   49.9110   12.8060 C.3   235  LYS235      0.1596
    115  C         23.8750   49.1260   12.3640 C.2   235  LYS235      0.2287
    116  O         24.5340   49.4830   11.3860 O.2   235  LYS235     -0.2864
    117  CB        22.2860   50.9550   11.7420 C.3   235  LYS235      0.0298
    118  CG        20.9690   51.6950   11.9980 C.3   235  LYS235      0.0038
    119  CD        19.7850   50.7340   12.1280 C.3   235  LYS235      0.0206
    120  CE        18.4610   51.4850   12.0440 C.3   235  LYS235      0.1093
    121  NZ        17.2770   50.6040   12.2620 N.3   235  LYS235     -0.1314
@<TRIPOS>BOND
     1    19    18    2
     2    18    17    1
     3    17    20    1
     4    17    16    1
     5    20    21    1
     6    23    21   ar
     7    23    25   ar
     8    21    22   ar
     9    25    24   ar
    10    22    24   ar
    11     4     3    2
    12   116   115    2
    13     1     2    1
    14   117   118    1
    15   117   114    1
    16   118   119    1
    17   120   119    1
    18   120   121    1
    19   115   114    1
    20     3     2    1
    21     3     8   am
    22    10    11    2
    23    10     9    1
    24    63    62    2
    25   114   113    1
    26     2     5    1
    27     7     5    1
    28     9     8    1
    29     9    12    1
    30    66    65    1
    31    60    61    1
    32     5     6    1
    33    64    61    1
    34    64    65    1
    35    62    61    1
    36   113   105   am
    37    65    67    1
    38    79    78    2
    39    78    77    1
    40    12    14    1
    41    12    13    1
    42    80    77    1
    43    80    81    1
    44    83    81    1
    45   105   106    2
    46   105   104    1
    47    13    15    1
    48    77    76    1
    49    81    82    1
    50    70    71    2
    51    70    69    1
    52    26    27    1
    53    68    69    1
    54   110   112   ar
    55   110   108   ar
    56    30    27    1
    57    30    31    1
    58   103   104    1
    59   104   107    1
    60   107   108    1
    61    34    35    2
    62    34    33    1
    63   112   111   ar
    64    69    72    1
    65   108   109   ar
    66    32    33    1
    67    32    28   am
    68    27    28    1
    69    36    33    1
    70    36    37    1
    71    72    73    1
    72    28    29    2
    73   111   109   ar
    74    73    75    1
    75    73    74    1
    76    58    56   ar
    77    58    59   ar
    78    90    88    1
    79    49    48    2
    80    56    53   ar
    81    91    89    1
    82    88    89    1
    83    88    85    1
    84    59    57   ar
    85   102   100   ar
    86   102   101   ar
    87   100    98   ar
    88   101    99   ar
    89    48    47    1
    90    53    51   ar
    91    53    55   ar
    92    98    97   ar
    93    50    47    1
    94    50    51    1
    95    99    97   ar
    96    84    85    1
    97    97    96    1
    98    85    86    1
    99    57    55   ar
   100    47    46    1
   101    51    52   ar
   102    96    93    1
   103    55    54   ar
   104    92    86   am
   105    92    93    1
   106    86    87    2
   107    93    94    1
   108    45    43    1
   109    52    54   ar
   110    95    94    2
   111    43    44    1
   112    43    42    1
   113    42    39    1
   114    39    40    1
   115    39    38    1
   116    40    41    2
