@<TRIPOS>MOLECULE
tmp/1yb7A00.pdb
 129 123 0 0 0
SMALL
GASTEIGER

@<TRIPOS>ATOM
      1  N         12.9620   47.0700   11.6800 N.3    10  THR10      -0.1203
      2  CA        12.2990   47.6010   12.8680 C.3    10  THR10       0.1994
      3  C         11.1800   48.5740   12.4840 C.2    10  THR10       0.2617
      4  O         10.9990   48.8940   11.3070 O.2    10  THR10      -0.2717
      5  CB        13.3150   48.3330   13.7560 C.3    10  THR10       0.1784
      6  OG1       12.7380   48.5820   15.0430 O.3    10  THR10      -0.2211
      7  CG2       13.7120   49.6630   13.1130 C.3    10  THR10       0.0376
      8  N         10.4270   49.0560   13.4690 N.am   11  ILE11      -0.1979
      9  CA         9.3410   49.9810   13.1580 C.3    11  ILE11       0.1595
     10  C          9.8670   51.2460   12.4800 C.2    11  ILE11       0.2287
     11  O         11.0030   51.6620   12.7100 O.2    11  ILE11      -0.2864
     12  CB         8.5330   50.3800   14.4230 C.3    11  ILE11       0.0276
     13  CG1        9.4090   51.1730   15.3920 C.3    11  ILE11       0.0022
     14  CG2        7.9830   49.1250   15.1050 C.3    11  ILE11       0.0022
     15  CD1        8.6290   51.7750   16.5480 C.3    11  ILE11       0.0001
     16  N         10.8610   51.6000    9.6630 N.3    13  HIS13      -0.1241
     17  CA        11.8520   51.2650    8.6500 C.3    13  HIS13       0.1621
     18  C         11.2710   50.2850    7.6330 C.2    13  HIS13       0.2264
     19  O         10.0620   50.0450    7.6010 O.2    13  HIS13      -0.2867
     20  CB        13.1060   50.6650    9.3040 C.3    13  HIS13       0.0745
     21  CG        13.9410   51.6630   10.0470 C.ar   13  HIS13       0.0817
     22  ND1       13.4930   52.3240   11.1710 N.ar   13  HIS13      -0.2268
     23  CD2       15.1950   52.1200    9.8180 C.ar   13  HIS13       0.1154
     24  CE1       14.4340   53.1460   11.6010 C.ar   13  HIS13       0.1986
     25  NE2       15.4780   53.0410   10.7970 N.ar   13  HIS13      -0.2212
     26  N         16.3450   45.7420   16.2750 N.3    79  SER79      -0.1202
     27  CA        15.6120   46.6370   17.1610 C.3    79  SER79       0.2020
     28  C         14.2720   46.0610   17.6230 C.2    79  SER79       0.2619
     29  O         14.2450   45.1650   18.4580 O.2    79  SER79      -0.2717
     30  CB        15.4170   47.9850   16.4550 C.3    79  SER79       0.2103
     31  OG        15.0780   49.0090   17.3700 O.3    79  SER79      -0.2182
     32  N         13.1600   46.5670   17.0990 N.am   80  CYS80      -0.1969
     33  CA        11.8550   46.0530   17.5120 C.3    80  CYS80       0.1712
     34  C         11.4720   44.7470   16.8190 C.2    80  CYS80       0.2296
     35  O         10.4680   44.1220   17.1680 O.2    80  CYS80      -0.2864
     36  CB        10.7640   47.1000   17.2650 C.3    80  CYS80       0.0983
     37  SG        10.9060   48.5600   18.3090 S.3    80  CYS80      -0.0798
     38  N         12.4540   49.3950   28.0490 N.3   120  LEU120     -0.1245
     39  CA        13.1820   50.2450   27.1120 C.3   120  LEU120      0.1561
     40  C         12.8160   51.7100   27.3190 C.2   120  LEU120      0.2260
     41  O         13.6890   52.5800   27.3310 O.2   120  LEU120     -0.2867
     42  CB        12.8720   49.8410   25.6650 C.3   120  LEU120      0.0270
     43  CG        13.4020   50.7890   24.5820 C.3   120  LEU120      0.0019
     44  CD1       14.9150   50.8890   24.6830 C.3   120  LEU120      0.0001
     45  CD2       12.9880   50.2850   23.2040 C.3   120  LEU120      0.0001
     46  N         13.0880   60.7630   23.3280 N.3   127  TRP127     -0.1241
     47  CA        13.2530   60.4570   21.9110 C.3   127  TRP127      0.1605
     48  C         13.5130   61.7060   21.0740 C.2   127  TRP127      0.2264
     49  O         13.2960   61.7260   19.8610 O.2   127  TRP127     -0.2867
     50  CB        12.0260   59.6960   21.4060 C.3   127  TRP127      0.0550
     51  CG        11.9560   58.2990   21.9620 C.ar  127  TRP127      0.0003
     52  CD1       12.1540   57.9210   23.2620 C.ar  127  TRP127      0.0946
     53  CD2       11.6500   57.1020   21.2390 C.ar  127  TRP127      0.0152
     54  NE1       11.9910   56.5620   23.3920 N.ar  127  TRP127     -0.2442
     55  CE2       11.6800   56.0340   22.1650 C.ar  127  TRP127      0.0810
     56  CE3       11.3510   56.8260   19.8970 C.ar  127  TRP127      0.0012
     57  CZ2       11.4210   54.7120   21.7960 C.ar  127  TRP127      0.0191
     58  CZ3       11.0920   55.5080   19.5290 C.ar  127  TRP127      0.0001
     59  CH2       11.1290   54.4690   20.4790 C.ar  127  TRP127      0.0015
     60  N          9.9710   59.0290   13.7580 N.3   147  LEU147     -0.1245
     61  CA        11.3050   59.2410   14.3040 C.3   147  LEU147      0.1561
     62  C         11.8810   60.5910   13.9070 C.2   147  LEU147      0.2260
     63  O         11.8900   60.9520   12.7290 O.2   147  LEU147     -0.2867
     64  CB        12.2400   58.1240   13.8380 C.3   147  LEU147      0.0270
     65  CG        11.7960   56.7160   14.2430 C.3   147  LEU147      0.0019
     66  CD1       12.6780   55.6860   13.5560 C.3   147  LEU147      0.0001
     67  CD2       11.8580   56.5680   15.7620 C.3   147  LEU147      0.0001
     68  N         17.1690   62.5050   16.2540 N.3   151  LEU151     -0.1245
     69  CA        17.2740   61.2220   16.9430 C.3   151  LEU151      0.1561
     70  C         17.9420   60.2240   15.9990 C.2   151  LEU151      0.2260
     71  O         18.8090   59.4560   16.4100 O.2   151  LEU151     -0.2867
     72  CB        15.8900   60.6930   17.3410 C.3   151  LEU151      0.0270
     73  CG        15.8980   59.3090   18.0100 C.3   151  LEU151      0.0019
     74  CD1       16.5110   59.4070   19.4030 C.3   151  LEU151      0.0001
     75  CD2       14.4790   58.7630   18.0990 C.3   151  LEU151      0.0001
     76  N         20.5300   56.5830   16.3640 N.3   156  LEU156     -0.1245
     77  CA        20.3320   55.3830   15.5600 C.3   156  LEU156      0.1561
     78  C         21.4110   55.1560   14.5110 C.2   156  LEU156      0.2260
     79  O         21.9570   54.0560   14.4170 O.2   156  LEU156     -0.2867
     80  CB        18.9540   55.4190   14.8930 C.3   156  LEU156      0.0270
     81  CG        17.7430   55.1240   15.7890 C.3   156  LEU156      0.0019
     82  CD1       17.6420   56.1510   16.9060 C.3   156  LEU156      0.0001
     83  CD2       16.4770   55.1300   14.9460 C.3   156  LEU156      0.0001
     84  N          4.6330   51.4110   18.1500 N.3   177  LEU177     -0.1245
     85  CA         5.1520   50.3510   19.0040 C.3   177  LEU177      0.1561
     86  C          3.9820   49.4920   19.4760 C.2   177  LEU177      0.2260
     87  O          4.1830   48.3810   19.9660 O.2   177  LEU177     -0.2867
     88  CB         5.8580   50.9430   20.2320 C.3   177  LEU177      0.0270
     89  CG         7.2410   51.5740   20.0570 C.3   177  LEU177      0.0019
     90  CD1        7.6110   52.3550   21.3160 C.3   177  LEU177      0.0001
     91  CD2        8.2650   50.4870   19.7810 C.3   177  LEU177      0.0001
     92  N         21.0130   53.9500   21.5600 N.3   208  ILE208     -0.1231
     93  CA        19.5930   53.9820   21.8930 C.3   208  ILE208      0.1692
     94  C         19.2510   52.7660   22.7490 C.2   208  ILE208      0.2592
     95  O         18.6090   52.8990   23.7900 O.2   208  ILE208     -0.2718
     96  CB        18.6820   54.0490   20.6440 C.3   208  ILE208      0.0266
     97  CG1       17.2240   54.0690   21.1020 C.3   208  ILE208      0.0019
     98  CG2       18.9580   52.8830   19.7030 C.3   208  ILE208      0.0020
     99  CD1       16.3090   54.8490   20.1920 C.3   208  ILE208      0.0001
    100  N         19.6760   51.5840   22.3130 N.am  209  PHE209     -0.1976
    101  CA        19.4690   50.3680   23.0940 C.3   209  PHE209      0.1639
    102  C         20.7580   50.3040   23.9010 C.2   209  PHE209      0.2290
    103  O         21.6950   49.5800   23.5650 O.2   209  PHE209     -0.2864
    104  CB        19.3260   49.1480   22.1770 C.3   209  PHE209      0.0560
    105  CG        17.9290   48.9370   21.6560 C.ar  209  PHE209     -0.0200
    106  CD1       17.1170   50.0200   21.3310 C.ar  209  PHE209     -0.0042
    107  CD2       17.4300   47.6520   21.4720 C.ar  209  PHE209     -0.0042
    108  CE1       15.8290   49.8220   20.8270 C.ar  209  PHE209     -0.0003
    109  CE2       16.1450   47.4420   20.9690 C.ar  209  PHE209     -0.0003
    110  CZ        15.3440   48.5280   20.6460 C.ar  209  PHE209     -0.0000
    111  N         23.9100   51.4070   16.5460 N.3   234  HIS234     -0.1226
    112  CA        22.6410   50.6830   16.5700 C.3   234  HIS234      0.1752
    113  C         22.3610   49.9350   15.2640 C.2   234  HIS234      0.2595
    114  O         21.7710   48.8490   15.2720 O.2   234  HIS234     -0.2718
    115  CB        21.4950   51.6550   16.8650 C.3   234  HIS234      0.0759
    116  CG        20.1610   50.9920   17.0250 C.ar  234  HIS234      0.0818
    117  ND1       19.9080   50.0560   18.0050 N.ar  234  HIS234     -0.2268
    118  CD2       19.0020   51.1450   16.3430 C.ar  234  HIS234      0.1154
    119  CE1       18.6490   49.6630   17.9220 C.ar  234  HIS234      0.1986
    120  NE2       18.0770   50.3090   16.9210 N.ar  234  HIS234     -0.2212
    121  N         22.7810   50.5150   14.1450 N.am  235  LYS235     -0.1980
    122  CA        22.5610   49.8910   12.8450 C.3   235  LYS235      0.1596
    123  C         23.7930   49.1030   12.4110 C.2   235  LYS235      0.2287
    124  O         24.4790   49.4730   11.4630 O.2   235  LYS235     -0.2864
    125  CB        22.2270   50.9490   11.7870 C.3   235  LYS235      0.0298
    126  CG        20.9150   51.7110   12.0240 C.3   235  LYS235      0.0038
    127  CD        19.7150   50.7690   12.1120 C.3   235  LYS235      0.0206
    128  CE        18.4000   51.5390   12.0420 C.3   235  LYS235      0.1093
    129  NZ        17.2080   50.6490   12.2340 N.3   235  LYS235     -0.1314
@<TRIPOS>BOND
     1    19    18    2
     2    18    17    1
     3    17    20    1
     4    17    16    1
     5    20    21    1
     6    23    21   ar
     7    23    25   ar
     8    21    22   ar
     9    25    24   ar
    10    22    24   ar
    11     4     3    2
    12   124   123    2
    13     1     2    1
    14   125   126    1
    15   125   122    1
    16   126   127    1
    17   128   127    1
    18   128   129    1
    19   123   122    1
    20    10    11    2
    21    10     9    1
    22     3     2    1
    23     3     8   am
    24    63    62    2
    25   122   121    1
    26     2     5    1
    27     7     5    1
    28     9     8    1
    29     9    12    1
    30    66    65    1
    31     5     6    1
    32    60    61    1
    33    64    65    1
    34    64    61    1
    35    62    61    1
    36   121   113   am
    37    65    67    1
    38    79    78    2
    39    12    14    1
    40    12    13    1
    41    78    77    1
    42    80    77    1
    43    80    81    1
    44    83    81    1
    45   113   114    2
    46   113   112    1
    47    13    15    1
    48    77    76    1
    49    81    82    1
    50    70    71    2
    51    70    69    1
    52    68    69    1
    53    26    27    1
    54   118   120   ar
    55   118   116   ar
    56    30    27    1
    57    30    31    1
    58   111   112    1
    59   112   115    1
    60    34    35    2
    61    34    33    1
    62   115   116    1
    63   120   119   ar
    64    69    72    1
    65   116   117   ar
    66    32    33    1
    67    32    28   am
    68    27    28    1
    69    36    33    1
    70    36    37    1
    71    72    73    1
    72    28    29    2
    73   119   117   ar
    74    73    75    1
    75    73    74    1
    76    84    85    1
    77    85    86    1
    78    85    88    1
    79    86    87    2
    80    58    56   ar
    81    58    59   ar
    82    98    96    1
    83    91    89    1
    84    49    48    2
    85    56    53   ar
    86    89    88    1
    87    89    90    1
    88    99    97    1
    89    59    57   ar
    90    96    97    1
    91    96    93    1
    92   110   108   ar
    93   110   109   ar
    94   108   106   ar
    95   109   107   ar
    96    48    47    1
    97    53    51   ar
    98    53    55   ar
    99   106   105   ar
   100    50    47    1
   101    50    51    1
   102   107   105   ar
   103    92    93    1
   104   105   104    1
   105    57    55   ar
   106    93    94    1
   107    47    46    1
   108    51    52   ar
   109    55    54   ar
   110   104   101    1
   111   100    94   am
   112   100   101    1
   113    94    95    2
   114   101   102    1
   115    45    43    1
   116    52    54   ar
   117   103   102    2
   118    43    44    1
   119    43    42    1
   120    42    39    1
   121    39    40    1
   122    39    38    1
   123    40    41    2
