@<TRIPOS>MOLECULE
tmp/1ybaA00.pdb
 111 105 0 0 0
SMALL
GASTEIGER

@<TRIPOS>ATOM
      1  N          4.3990  -26.6670  -55.6630 N.3    13  GLU13      -0.1245
      2  CA         4.4250  -25.5850  -54.6880 C.3    13  GLU13       0.1567
      3  C          4.6050  -26.0320  -53.2310 C.2    13  GLU13       0.2260
      4  O          4.2400  -25.3130  -52.3140 O.2    13  GLU13      -0.2867
      5  CB         3.1680  -24.7350  -54.8190 C.3    13  GLU13       0.0388
      6  CG         3.0350  -24.0070  -56.1250 C.3    13  GLU13       0.1160
      7  CD         1.8170  -23.0980  -56.1020 C.2    13  GLU13       0.3649
      8  OE1        1.9450  -21.9770  -55.5440 O.co2  13  GLU13      -0.2457
      9  OE2        0.7280  -23.5270  -56.6000 O.co2  13  GLU13      -0.2457
     10  N         -1.0450  -25.0160  -55.0640 N.3    56  ARG56      -0.1231
     11  CA        -1.4560  -23.9870  -54.1720 C.3    56  ARG56       0.1694
     12  C         -1.8840  -22.7660  -54.9860 C.2    56  ARG56       0.2593
     13  O         -2.4560  -22.9120  -56.0600 O.2    56  ARG56      -0.2718
     14  CB        -0.3360  -23.7070  -53.1800 C.3    56  ARG56       0.0321
     15  CG         0.0800  -24.9690  -52.4420 C.3    56  ARG56       0.0489
     16  CD         0.2500  -24.6720  -50.9970 C.3    56  ARG56       0.2205
     17  NE         1.6360  -24.7000  -50.6200 N.pl3  56  ARG56      -0.0865
     18  CZ         2.2230  -23.8390  -49.8040 C.cat  56  ARG56       0.5346
     19  NH1        1.5980  -22.8000  -49.2450 N.pl3  56  ARG56       0.1354
     20  NH2        3.4890  -24.0290  -49.5500 N.pl3  56  ARG56       0.1354
     21  N         -1.6180  -21.5680  -54.4770 N.am   57  SER57      -0.1938
     22  CA        -2.3230  -20.3860  -54.9380 C.3    57  SER57       0.2055
     23  C         -1.6190  -19.7210  -56.0940 C.2    57  SER57       0.2642
     24  O         -2.1780  -18.8350  -56.7170 O.2    57  SER57      -0.2714
     25  CB        -2.5180  -19.4070  -53.7760 C.3    57  SER57       0.2130
     26  OG        -1.2870  -19.1500  -53.1190 O.3    57  SER57      -0.2179
     27  N         -0.4090  -20.1630  -56.4050 N.am   58  ARG58      -0.1977
     28  CA         0.3930  -19.4940  -57.4200 C.3    58  ARG58       0.1597
     29  C          0.4950  -20.2320  -58.7500 C.2    58  ARG58       0.2287
     30  O          0.8410  -19.6150  -59.7560 O.2    58  ARG58      -0.2864
     31  CB         1.7840  -19.1930  -56.8790 C.3    58  ARG58       0.0334
     32  CG         1.7770  -18.5560  -55.4740 C.3    58  ARG58       0.0492
     33  CD         3.0820  -17.8190  -55.1910 C.3    58  ARG58       0.2205
     34  NE         4.1110  -18.3740  -56.0750 N.pl3  58  ARG58      -0.0865
     35  CZ         5.1860  -17.7340  -56.5340 C.cat  58  ARG58       0.5346
     36  NH1        5.4770  -16.4850  -56.1600 N.pl3  58  ARG58       0.1354
     37  NH2        5.9990  -18.3820  -57.3730 N.pl3  58  ARG58       0.1354
     38  N         -4.6550  -27.3300  -52.6920 N.3    78  PHE78      -0.1227
     39  CA        -4.1740  -27.4820  -51.3100 C.3    78  PHE78       0.1736
     40  C         -4.0840  -26.1130  -50.6220 C.2    78  PHE78       0.2596
     41  O         -3.0180  -25.6670  -50.2060 O.2    78  PHE78      -0.2718
     42  CB        -2.8090  -28.1980  -51.2960 C.3    78  PHE78       0.0547
     43  CG        -2.9130  -29.6590  -51.5220 C.ar   78  PHE78      -0.0202
     44  CD1       -3.2460  -30.1540  -52.7830 C.ar   78  PHE78      -0.0042
     45  CD2       -2.7350  -30.5490  -50.4670 C.ar   78  PHE78      -0.0042
     46  CE1       -3.3930  -31.5310  -53.0120 C.ar   78  PHE78      -0.0003
     47  CE2       -2.8760  -31.9200  -50.6770 C.ar   78  PHE78      -0.0003
     48  CZ        -3.2120  -32.4130  -51.9680 C.ar   78  PHE78      -0.0000
     49  N         -5.2470  -25.4890  -50.4750 N.am   79  CYS79      -0.1956
     50  CA        -5.3940  -24.0920  -50.0550 C.3    79  CYS79       0.1843
     51  C         -6.8770  -23.7650  -50.1240 C.2    79  CYS79       0.2625
     52  O         -7.6820  -24.5770  -50.5910 O.2    79  CYS79      -0.2714
     53  CB        -4.6180  -23.1520  -50.9800 C.3    79  CYS79       0.0997
     54  SG        -5.0860  -23.3260  -52.6870 S.3    79  CYS79      -0.0797
     55  N         -7.2330  -22.5730  -49.6850 N.am   80  ILE80      -0.1963
     56  CA        -8.6220  -22.1280  -49.6830 C.3    80  ILE80       0.1727
     57  C         -9.1130  -21.6340  -51.0480 C.2    80  ILE80       0.2616
     58  O        -10.2090  -21.9820  -51.4820 O.2    80  ILE80      -0.2715
     59  CB        -8.7930  -20.9680  -48.7260 C.3    80  ILE80       0.0290
     60  CG1       -8.4350  -21.4310  -47.3150 C.3    80  ILE80       0.0022
     61  CG2      -10.2150  -20.4120  -48.8320 C.3    80  ILE80       0.0023
     62  CD1       -8.9020  -20.4810  -46.2400 C.3    80  ILE80       0.0001
     63  N         -8.3150  -20.7740  -51.6780 N.am   81  GLY81      -0.1955
     64  CA        -8.7020  -20.0980  -52.9130 C.3    81  GLY81       0.1869
     65  C         -8.6610  -21.0010  -54.1180 C.2    81  GLY81       0.2309
     66  O         -7.9010  -21.9650  -54.1490 O.2    81  GLY81      -0.2863
     67  N         -7.9810  -23.9230  -41.7610 N.3   104  ASN104     -0.1240
     68  CA        -7.0890  -22.8340  -41.2830 C.3   104  ASN104      0.1653
     69  C         -7.5960  -22.1780  -39.9750 C.2   104  ASN104      0.2266
     70  O         -7.0620  -21.1250  -39.5110 O.2   104  ASN104     -0.2867
     71  CB        -6.9670  -21.7260  -42.3650 C.3   104  ASN104      0.1155
     72  CG        -6.4900  -22.2490  -43.7400 C.2   104  ASN104      0.2627
     73  OD1       -5.4620  -21.7920  -44.2710 O.2   104  ASN104     -0.2716
     74  ND2       -7.2730  -23.1780  -44.3450 N.am  104  ASN104     -0.0877
     75  N         -1.5950  -11.5300  -45.7430 N.3   283  HIS283     -0.1241
     76  CA        -2.5450  -12.6010  -45.9730 C.3   283  HIS283      0.1621
     77  C         -2.0440  -13.9020  -45.3810 C.2   283  HIS283      0.2264
     78  O         -2.0980  -14.9690  -46.0180 O.2   283  HIS283     -0.2867
     79  CB        -2.8720  -12.7540  -47.4540 C.3   283  HIS283      0.0745
     80  CG        -4.1920  -13.4240  -47.7000 C.ar  283  HIS283      0.0817
     81  ND1       -4.9820  -13.1350  -48.7850 N.ar  283  HIS283     -0.2268
     82  CD2       -4.8850  -14.3280  -46.9630 C.ar  283  HIS283      0.1154
     83  CE1       -6.0880  -13.8570  -48.7270 C.ar  283  HIS283      0.1986
     84  NE2       -6.0610  -14.5760  -47.6190 N.ar  283  HIS283     -0.2212
     85  N         -3.8990  -17.8160  -42.1890 N.3   286  GLY286     -0.1210
     86  CA        -3.8800  -19.2760  -42.1760 C.3   286  GLY286      0.1956
     87  C         -2.5320  -19.9210  -42.4460 C.2   286  GLY286      0.2612
     88  O         -2.4460  -21.1430  -42.5310 O.2   286  GLY286     -0.2717
     89  N         -1.4700  -19.1170  -42.5470 N.am  287  SER287     -0.1952
     90  CA        -0.1480  -19.5930  -42.9670 C.3   287  SER287      0.1924
     91  C          0.6900  -20.0940  -41.8150 C.2   287  SER287      0.2314
     92  O          1.5990  -19.3960  -41.3670 O.2   287  SER287     -0.2863
     93  CB         0.6170  -18.4830  -43.6960 C.3   287  SER287      0.2116
     94  OG        -0.1860  -17.9670  -44.7320 O.3   287  SER287     -0.2180
     95  N         -1.1320  -26.0290  -43.0860 N.3   292  GLN292     -0.1245
     96  CA        -0.6380  -26.8490  -44.2150 C.3   292  GLN292      0.1566
     97  C         -0.8540  -28.3510  -44.0570 C.2   292  GLN292      0.2260
     98  O         -1.2000  -29.0770  -45.0050 O.2   292  GLN292     -0.2867
     99  CB         0.8480  -26.5970  -44.4110 C.3   292  GLN292      0.0367
    100  CG         1.1310  -25.2570  -44.9960 C.3   292  GLN292      0.0905
    101  CD         0.6110  -25.1330  -46.4140 C.2   292  GLN292      0.2608
    102  OE1       -0.4100  -24.4870  -46.6490 O.2   292  GLN292     -0.2717
    103  NE2        1.2970  -25.7610  -47.3630 N.am  292  GLN292     -0.0878
    104  N         -4.5580  -29.2510  -44.3670 N.3   295  ILE295     -0.1245
    105  CA        -4.8480  -29.1260  -45.7890 C.3   295  ILE295      0.1561
    106  C         -4.3780  -30.3780  -46.5270 C.2   295  ILE295      0.2260
    107  O         -5.1530  -31.0460  -47.2190 O.2   295  ILE295     -0.2867
    108  CB        -4.1670  -27.8370  -46.3230 C.3   295  ILE295      0.0252
    109  CG1       -4.8990  -26.6110  -45.7800 C.3   295  ILE295      0.0019
    110  CG2       -4.1630  -27.7760  -47.8400 C.3   295  ILE295      0.0019
    111  CD1       -4.1860  -25.2760  -46.0140 C.3   295  ILE295      0.0001
@<TRIPOS>BOND
     1    30    29    2
     2    29    28    1
     3    28    31    1
     4    28    27    1
     5    37    35    1
     6    31    32    1
     7    24    23    2
     8     9     7   ar
     9    35    36    1
    10    35    34    2
    11    27    23   am
    12     6     7    1
    13     6     5    1
    14     7     8   ar
    15    23    22    1
    16    34    33    1
    17    13    12    2
    18     1     2    1
    19    32    33    1
    20    10    11    1
    21    12    21   am
    22    12    11    1
    23    22    21    1
    24    22    25    1
    25     5     2    1
    26     2     3    1
    27    11    14    1
    28    66    65    2
    29    65    64    1
    30    25    26    1
    31     3     4    2
    32    14    15    1
    33    46    44   ar
    34    46    48   ar
    35    64    63    1
    36    44    43   ar
    37    38    39    1
    38    54    53    1
    39    15    16    1
    40    48    47   ar
    41    63    57   am
    42    43    42    1
    43    43    45   ar
    44    58    57    2
    45    39    42    1
    46    39    40    1
    47    57    56    1
    48    16    17    1
    49    53    50    1
    50    47    45   ar
    51    40    49   am
    52    40    41    2
    53    17    18    2
    54    52    51    2
    55    49    50    1
    56    51    50    1
    57    51    55   am
    58    18    20    1
    59    18    19    1
    60    55    56    1
    61    56    59    1
    62    61    59    1
    63    81    83   ar
    64    81    80   ar
    65    83    84   ar
    66    59    60    1
    67   110   108    1
    68    80    79    1
    69    80    82   ar
    70    84    82   ar
    71    79    76    1
    72   103   101   am
    73    60    62    1
    74   107   106    2
    75   102   101    2
    76   106   105    1
    77   101   100    1
    78   108   105    1
    79   108   109    1
    80    78    77    2
    81   111   109    1
    82    76    75    1
    83    76    77    1
    84   105   104    1
    85    98    97    2
    86   100    99    1
    87    94    93    1
    88    99    96    1
    89    74    72   am
    90    73    72    2
    91    96    97    1
    92    96    95    1
    93    72    71    1
    94    93    90    1
    95    90    89    1
    96    90    91    1
    97    89    87   am
    98    88    87    2
    99    87    86    1
   100    71    68    1
   101    85    86    1
   102    91    92    2
   103    67    68    1
   104    68    69    1
   105    69    70    2
