@<TRIPOS>MOLECULE
tmp/1ybgD00.pdb
 218 210 0 0 0
SMALL
GASTEIGER

@<TRIPOS>ATOM
      1  N        -40.3060  -27.7880  118.3610 N.3    22  LYS22      -0.1231
      2  CA       -39.0980  -27.3550  117.6860 C.3    22  LYS22       0.1693
      3  C        -39.0920  -25.8240  117.6850 C.2    22  LYS22       0.2592
      4  O        -38.0500  -25.2000  117.6570 O.2    22  LYS22      -0.2718
      5  CB       -39.0700  -27.9160  116.2610 C.3    22  LYS22       0.0285
      6  CG       -39.2000  -26.8930  115.1320 C.3    22  LYS22       0.0035
      7  CD       -39.1700  -27.5700  113.7550 C.3    22  LYS22       0.0206
      8  CE       -39.1460  -26.5580  112.6170 C.3    22  LYS22       0.1093
      9  NZ       -40.2700  -25.5690  112.7310 N.3    22  LYS22      -0.1314
     10  N        -40.2610  -25.2180  117.7350 N.am   23  ASN23      -0.1974
     11  CA       -40.3310  -23.7630  117.7350 C.3    23  ASN23       0.1688
     12  C        -39.7960  -23.1450  119.0330 C.2    23  ASN23       0.2292
     13  O        -39.5460  -21.9420  119.0840 O.2    23  ASN23      -0.2864
     14  CB       -41.7670  -23.3020  117.4630 C.3    23  ASN23       0.1181
     15  CG       -42.2440  -23.6930  116.0710 C.2    23  ASN23       0.2629
     16  OD1      -41.4290  -23.9740  115.1960 O.2    23  ASN23      -0.2716
     17  ND2      -43.5630  -23.6910  115.8550 N.am   23  ASN23      -0.0877
     18  N        -35.4610  -24.4710  118.8970 N.3    26  LEU26      -0.1231
     19  CA       -34.5670  -23.6350  118.0980 C.3    26  LEU26       0.1678
     20  C        -34.0870  -22.3410  118.7850 C.2    26  LEU26       0.2434
     21  O        -32.8850  -22.0880  118.8640 O.2    26  LEU26      -0.2733
     22  CB       -35.1980  -23.3220  116.7340 C.3    26  LEU26       0.0284
     23  CG       -35.2700  -24.6340  115.9240 C.3    26  LEU26       0.0019
     24  CD1      -36.1050  -24.4510  114.7220 C.3    26  LEU26       0.0001
     25  CD2      -33.8760  -25.1120  115.5290 C.3    26  LEU26       0.0001
     26  N        -35.0110  -21.5060  119.2920 N.am   27  PRO27      -0.2729
     27  CA       -34.4870  -20.2940  119.9330 C.3    27  PRO27       0.1401
     28  C        -33.6550  -20.6240  121.1810 C.2    27  PRO27       0.2269
     29  O        -32.6470  -19.9610  121.4610 O.2    27  PRO27      -0.2865
     30  CB       -35.7570  -19.4670  120.2230 C.3    27  PRO27       0.0296
     31  CG       -36.8520  -20.4980  120.3000 C.3    27  PRO27       0.0237
     32  CD       -36.4820  -21.4790  119.2110 C.3    27  PRO27       0.0939
     33  N        -34.1690  -29.0790  111.1850 N.3    49  ASP49      -0.1239
     34  CA       -33.5960  -27.8430  111.6950 C.3    49  ASP49       0.1674
     35  C        -32.7590  -28.0460  112.9430 C.2    49  ASP49       0.2266
     36  O        -31.8220  -27.2890  113.2030 O.2    49  ASP49      -0.2867
     37  CB       -34.6800  -26.7990  111.9740 C.3    49  ASP49       0.1410
     38  CG       -35.3520  -26.3060  110.7010 C.2    49  ASP49       0.3668
     39  OD1      -34.6370  -26.0980  109.6990 O.co2  49  ASP49      -0.2456
     40  OD2      -36.5940  -26.1190  110.7060 O.co2  49  ASP49      -0.2456
     41  N        -34.2330  -20.1990  108.6770 N.3    90  ARG90      -0.1231
     42  CA       -34.4060  -18.8530  109.1920 C.3    90  ARG90       0.1694
     43  C        -33.8130  -18.7160  110.5810 C.2    90  ARG90       0.2591
     44  O        -33.2740  -17.6650  110.9360 O.2    90  ARG90      -0.2718
     45  CB       -35.9000  -18.5290  109.2320 C.3    90  ARG90       0.0321
     46  CG       -36.6450  -18.9910  107.9810 C.3    90  ARG90       0.0489
     47  CD       -38.1490  -19.1120  108.2130 C.3    90  ARG90       0.2205
     48  NE       -38.8860  -17.9500  107.7270 N.pl3  90  ARG90      -0.0865
     49  CZ       -40.2120  -17.8240  107.7880 C.cat  90  ARG90       0.5346
     50  NH1      -40.9600  -18.7950  108.3200 N.pl3  90  ARG90       0.1354
     51  NH2      -40.7940  -16.7250  107.3080 N.pl3  90  ARG90       0.1354
     52  N        -33.9040  -19.7890  111.3600 N.am   91  ALA91      -0.1980
     53  CA       -33.4030  -19.7830  112.7290 C.3    91  ALA91       0.1597
     54  C        -31.9330  -19.3840  112.8670 C.2    91  ALA91       0.2287
     55  O        -31.5000  -19.0030  113.9500 O.2    91  ALA91      -0.2864
     56  CB       -33.6280  -21.1550  113.3760 C.3    91  ALA91       0.0319
     57  N        -30.3580  -16.8100  112.0610 N.3    93  ILE93      -0.1231
     58  CA       -30.1770  -15.4580  112.5140 C.3    93  ILE93       0.1692
     59  C        -30.0200  -15.3830  114.0210 C.2    93  ILE93       0.2592
     60  O        -29.4030  -14.4450  114.5140 O.2    93  ILE93      -0.2718
     61  CB       -31.3610  -14.5760  112.1180 C.3    93  ILE93       0.0266
     62  CG1      -31.0160  -13.1070  112.3670 C.3    93  ILE93       0.0019
     63  CG2      -32.5850  -14.9710  112.9360 C.3    93  ILE93       0.0020
     64  CD1      -29.6680  -12.6940  111.7640 C.3    93  ILE93       0.0001
     65  N        -30.5650  -16.3500  114.7610 N.am   94  TRP94      -0.1976
     66  CA       -30.4540  -16.3160  116.2160 C.3    94  TRP94       0.1640
     67  C        -29.0530  -16.5030  116.7830 C.2    94  TRP94       0.2290
     68  O        -28.8200  -16.3110  117.9760 O.2    94  TRP94      -0.2864
     69  CB       -31.4120  -17.3110  116.8430 C.3    94  TRP94       0.0576
     70  CG       -32.8400  -16.8470  116.7640 C.ar   94  TRP94       0.0006
     71  CD1      -33.2880  -15.5700  116.9090 C.ar   94  TRP94       0.0946
     72  CD2      -34.0100  -17.6660  116.6120 C.ar   94  TRP94       0.0152
     73  NE1      -34.6580  -15.5350  116.8710 N.ar   94  TRP94      -0.2442
     74  CE2      -35.1330  -16.8050  116.6870 C.ar   94  TRP94       0.0810
     75  CE3      -34.2220  -19.0440  116.4260 C.ar   94  TRP94       0.0012
     76  CZ2      -36.4520  -17.2760  116.5810 C.ar   94  TRP94       0.0191
     77  CZ3      -35.5410  -19.5130  116.3260 C.ar   94  TRP94       0.0001
     78  CH2      -36.6330  -18.6300  116.4020 C.ar   94  TRP94       0.0015
     79  N        -29.3170  -14.0160  103.5380 N.3   111  PRO111     -0.2116
     80  CA       -30.1110  -14.5200  102.4040 C.3   111  PRO111      0.1372
     81  C        -30.1790  -13.5030  101.2430 C.2   111  PRO111      0.2244
     82  O        -29.6310  -13.7410  100.1630 O.2   111  PRO111     -0.2868
     83  CB       -31.4780  -14.7790  103.0400 C.3   111  PRO111      0.0268
     84  CG       -31.1040  -15.2600  104.4160 C.3   111  PRO111      0.0207
     85  CD       -30.0440  -14.2430  104.8080 C.3   111  PRO111      0.0892
     86  N        -37.6380   -7.2710  104.5590 N.3   119  ARG119     -0.1231
     87  CA       -36.6890   -8.3070  104.9700 C.3   119  ARG119      0.1679
     88  C        -36.7200   -8.3660  106.4930 C.2   119  ARG119      0.2434
     89  O        -36.2380   -7.4520  107.1710 O.2   119  ARG119     -0.2733
     90  CB       -35.2710   -7.9930  104.5130 C.3   119  ARG119      0.0321
     91  CG       -34.3070   -9.0630  104.9490 C.3   119  ARG119      0.0489
     92  CD       -32.9210   -8.7350  104.4960 C.3   119  ARG119      0.2205
     93  NE       -32.5390   -7.3820  104.8900 N.pl3 119  ARG119     -0.0865
     94  CZ       -31.3030   -6.9110  104.8010 C.cat 119  ARG119      0.5346
     95  NH1      -31.0370   -5.6770  105.1720 N.pl3 119  ARG119      0.1354
     96  NH2      -30.3300   -7.6780  104.3510 N.pl3 119  ARG119      0.1354
     97  N        -37.2850   -9.4530  107.0450 N.am  120  PRO120     -0.2718
     98  CA       -37.4470   -9.7300  108.4760 C.3   120  PRO120      0.1535
     99  C        -36.2090   -9.6440  109.3510 C.2   120  PRO120      0.2598
    100  O        -36.3210   -9.5680  110.5780 O.2   120  PRO120     -0.2715
    101  CB       -38.0590  -11.1270  108.4850 C.3   120  PRO120      0.0310
    102  CG       -38.8270  -11.1650  107.2030 C.3   120  PRO120      0.0237
    103  CD       -37.8310  -10.5670  106.2490 C.3   120  PRO120      0.0939
    104  N        -35.0350   -9.6440  108.7300 N.am  121  VAL121     -0.1978
    105  CA       -33.8020   -9.5790  109.4950 C.3   121  VAL121      0.1596
    106  C        -33.4950   -8.1560  109.9620 C.2   121  VAL121      0.2287
    107  O        -32.6510   -7.9500  110.8310 O.2   121  VAL121     -0.2864
    108  CB       -32.6380  -10.0910  108.6560 C.3   121  VAL121      0.0276
    109  CG1      -31.4420  -10.2870  109.5210 C.3   121  VAL121      0.0022
    110  CG2      -33.0360  -11.3780  107.9570 C.3   121  VAL121      0.0022
    111  N        -33.8520   -7.5910  113.7110 N.3   124  HIS124     -0.1241
    112  CA       -32.7880   -8.1740  114.5000 C.3   124  HIS124      0.1621
    113  C        -31.6410   -7.2020  114.5110 C.2   124  HIS124      0.2264
    114  O        -31.0610   -6.9180  115.5560 O.2   124  HIS124     -0.2867
    115  CB       -32.3270   -9.4850  113.8870 C.3   124  HIS124      0.0745
    116  CG       -33.3560  -10.5650  113.9330 C.ar  124  HIS124      0.0817
    117  ND1      -33.4030  -11.5030  114.9430 N.ar  124  HIS124     -0.2268
    118  CD2      -34.3780  -10.8570  113.0940 C.ar  124  HIS124      0.1154
    119  CE1      -34.4100  -12.3300  114.7190 C.ar  124  HIS124      0.1986
    120  NE2      -35.0180  -11.9580  113.6040 N.ar  124  HIS124     -0.2212
    121  N        -45.0240   -6.6970  115.8540 N.3   160  VAL160     -0.1231
    122  CA       -44.7740   -7.7400  116.8390 C.3   160  VAL160      0.1692
    123  C        -43.9520   -8.7670  116.0790 C.2   160  VAL160      0.2593
    124  O        -44.3590   -9.2040  115.0080 O.2   160  VAL160     -0.2718
    125  CB       -46.0750   -8.3900  117.3160 C.3   160  VAL160      0.0266
    126  CG1      -45.7730   -9.6610  118.0800 C.3   160  VAL160      0.0020
    127  CG2      -46.8270   -7.4240  118.2010 C.3   160  VAL160      0.0020
    128  N        -42.7910   -9.1370  116.6040 N.am  161  SER161     -0.1938
    129  CA       -41.9430  -10.1040  115.9140 C.3   161  SER161      0.2055
    130  C        -41.3900  -11.1820  116.8180 C.2   161  SER161      0.2643
    131  O        -40.6340  -10.8880  117.7480 O.2   161  SER161     -0.2714
    132  CB       -40.7700   -9.4000  115.2250 C.3   161  SER161      0.2130
    133  OG       -39.8620  -10.3530  114.6830 O.3   161  SER161     -0.2179
    134  N        -41.7480  -12.4290  116.5320 N.am  162  VAL162     -0.1963
    135  CA       -41.2550  -13.5280  117.3390 C.3   162  VAL162      0.1727
    136  C        -39.7290  -13.5360  117.3020 C.2   162  VAL162      0.2616
    137  O        -39.0810  -13.4250  118.3310 O.2   162  VAL162     -0.2715
    138  CB       -41.7890  -14.8900  116.8220 C.3   162  VAL162      0.0290
    139  CG1      -41.1070  -16.0520  117.5450 C.3   162  VAL162      0.0023
    140  CG2      -43.2590  -14.9690  117.0330 C.3   162  VAL162      0.0023
    141  N        -39.1720  -13.6450  116.1000 N.am  163  GLY163     -0.1955
    142  CA       -37.7320  -13.7020  115.9220 C.3   163  GLY163      0.1869
    143  C        -36.9140  -12.5980  116.5380 C.2   163  GLY163      0.2309
    144  O        -35.8890  -12.8680  117.1490 O.2   163  GLY163     -0.2863
    145  N        -46.0280  -15.2900  122.2600 N.3   187  GLU187     -0.1245
    146  CA       -46.0890  -16.7420  122.0990 C.3   187  GLU187      0.1567
    147  C        -45.5130  -17.5520  123.2640 C.2   187  GLU187      0.2260
    148  O        -44.5980  -17.1070  123.9560 O.2   187  GLU187     -0.2867
    149  CB       -45.3360  -17.1680  120.8390 C.3   187  GLU187      0.0388
    150  CG       -46.1420  -17.2060  119.5810 C.3   187  GLU187      0.1160
    151  CD       -46.3250  -15.8610  118.9540 C.2   187  GLU187      0.3649
    152  OE1      -46.8740  -15.8370  117.8310 O.co2 187  GLU187     -0.2457
    153  OE2      -45.9260  -14.8430  119.5760 O.co2 187  GLU187     -0.2457
    154  N        -43.6730  -19.9970  123.0840 N.3   189  GLU189     -0.1245
    155  CA       -42.2770  -20.3170  122.7770 C.3   189  GLU189      0.1567
    156  C        -41.3150  -19.2140  123.2470 C.2   189  GLU189      0.2260
    157  O        -40.1400  -19.4860  123.5120 O.2   189  GLU189     -0.2867
    158  CB       -42.0950  -20.5590  121.2740 C.3   189  GLU189      0.0388
    159  CG       -42.8330  -21.7820  120.7220 C.3   189  GLU189      0.1160
    160  CD       -44.3390  -21.5820  120.5410 C.2   189  GLU189      0.3649
    161  OE1      -44.7970  -20.4170  120.4300 O.co2 189  GLU189     -0.2457
    162  OE2      -45.0620  -22.5990  120.4700 O.co2 189  GLU189     -0.2457
    163  N        -47.5970  -27.3530  121.1670 N.3   231  ARG231     -0.1245
    164  CA       -49.0120  -27.0410  121.2300 C.3   231  ARG231      0.1563
    165  C        -49.7210  -27.2660  119.9080 C.2   231  ARG231      0.2260
    166  O        -50.8960  -27.6400  119.8930 O.2   231  ARG231     -0.2867
    167  CB       -49.2090  -25.5980  121.6760 C.3   231  ARG231      0.0307
    168  CG       -48.7120  -24.5470  120.6900 C.3   231  ARG231      0.0489
    169  CD       -48.3770  -23.2500  121.4430 C.3   231  ARG231      0.2205
    170  NE       -47.6180  -22.2800  120.6520 N.pl3 231  ARG231     -0.0865
    171  CZ       -48.1570  -21.3570  119.8580 C.cat 231  ARG231      0.5346
    172  NH1      -49.4750  -21.2490  119.7250 N.pl3 231  ARG231      0.1354
    173  NH2      -47.3670  -20.5260  119.2020 N.pl3 231  ARG231      0.1354
    174  N        -53.2410  -19.2540  114.2300 N.3   303  THR303     -0.1203
    175  CA       -53.3350  -19.4550  112.8020 C.3   303  THR303      0.1994
    176  C        -52.7620  -20.8020  112.3680 C.2   303  THR303      0.2617
    177  O        -53.1390  -21.3300  111.3220 O.2   303  THR303     -0.2717
    178  CB       -52.5940  -18.3640  112.0300 C.3   303  THR303      0.1784
    179  OG1      -52.6310  -18.6720  110.6310 O.3   303  THR303     -0.2211
    180  CG2      -51.1770  -18.2800  112.4700 C.3   303  THR303      0.0376
    181  N        -51.8480  -21.3540  113.1620 N.am  304  ASP304     -0.1973
    182  CA       -51.2520  -22.6430  112.8270 C.3   304  ASP304      0.1709
    183  C        -52.2040  -23.8300  113.0070 C.2   304  ASP304      0.2293
    184  O        -51.8840  -24.9390  112.6060 O.2   304  ASP304     -0.2864
    185  CB       -49.9650  -22.8930  113.6420 C.3   304  ASP304      0.1436
    186  CG       -48.7410  -22.1320  113.0950 C.2   304  ASP304      0.3671
    187  OD1      -48.7950  -21.6000  111.9630 O.co2 304  ASP304     -0.2456
    188  OD2      -47.7070  -22.0690  113.8020 O.co2 304  ASP304     -0.2456
    189  N        -54.1800  -13.1490  110.0450 N.3   326  ILE326     -0.1231
    190  CA       -52.7230  -13.2030  110.1360 C.3   326  ILE326      0.1692
    191  C        -52.1520  -13.4710  108.7500 C.2   326  ILE326      0.2592
    192  O        -51.4380  -12.6410  108.1920 O.2   326  ILE326     -0.2718
    193  CB       -52.2500  -14.3440  111.0670 C.3   326  ILE326      0.0266
    194  CG1      -52.9940  -14.2820  112.4050 C.3   326  ILE326      0.0019
    195  CG2      -50.7360  -14.2590  111.2690 C.3   326  ILE326      0.0020
    196  CD1      -52.7830  -13.0190  113.1870 C.3   326  ILE326      0.0001
    197  N        -52.4910  -14.6380  108.2020 N.am  327  PHE327     -0.1976
    198  CA       -52.0180  -15.0760  106.8820 C.3   327  PHE327      0.1639
    199  C        -53.0930  -15.1270  105.7850 C.2   327  PHE327      0.2290
    200  O        -53.7970  -16.1260  105.6190 O.2   327  PHE327     -0.2864
    201  CB       -51.3680  -16.4600  106.9930 C.3   327  PHE327      0.0560
    202  CG       -50.0140  -16.4540  107.6570 C.ar  327  PHE327     -0.0200
    203  CD1      -49.7710  -17.2370  108.7880 C.ar  327  PHE327     -0.0042
    204  CD2      -48.9640  -15.7150  107.1200 C.ar  327  PHE327     -0.0042
    205  CE1      -48.5060  -17.2860  109.3590 C.ar  327  PHE327     -0.0003
    206  CE2      -47.6970  -15.7630  107.6920 C.ar  327  PHE327     -0.0003
    207  CZ       -47.4740  -16.5470  108.8030 C.ar  327  PHE327     -0.0000
    208  N        -40.5090  -32.0100  108.3230 N.3   396  ARG396     -0.1245
    209  CA       -39.7250  -30.9470  108.9020 C.3   396  ARG396      0.1563
    210  C        -40.2980  -30.4810  110.2280 C.2   396  ARG396      0.2260
    211  O        -39.5340  -30.1220  111.1320 O.2   396  ARG396     -0.2867
    212  CB       -39.6320  -29.7630  107.9330 C.3   396  ARG396      0.0307
    213  CG       -38.7820  -28.5690  108.4320 C.3   396  ARG396      0.0489
    214  CD       -39.5570  -27.5770  109.3480 C.3   396  ARG396      0.2205
    215  NE       -40.7450  -27.0050  108.6940 N.pl3 396  ARG396     -0.0865
    216  CZ       -41.5180  -26.0330  109.1900 C.cat 396  ARG396      0.5346
    217  NH1      -41.2590  -25.4780  110.3700 N.pl3 396  ARG396      0.1354
    218  NH2      -42.5710  -25.6160  108.4940 N.pl3 396  ARG396      0.1354
@<TRIPOS>BOND
     1    82    81    2
     2    81    80    1
     3    80    83    1
     4    80    79    1
     5    83    84    1
     6    79    85    1
     7    96    94    1
     8    84    85    1
     9    92    93    1
    10    92    91    1
    11    90    91    1
    12    90    87    1
    13    86    87    1
    14    94    93    2
    15    94    95    1
    16    87    88    1
    17   200   199    2
    18   199   198    1
    19   103    97    1
    20   103   102    1
    21    88    97   am
    22    88    89    2
    23   198   201    1
    24   198   197    1
    25   201   202    1
    26    97    98    1
    27   204   202   ar
    28   204   206   ar
    29   102   101    1
    30    51    49    1
    31   202   203   ar
    32   206   207   ar
    33    48    49    2
    34    48    47    1
    35    49    50    1
    36   212   213    1
    37   212   209    1
    38   110   108    1
    39    46    47    1
    40    46    45    1
    41   192   191    2
    42   197   191   am
    43   208   209    1
    44   213   214    1
    45    98   101    1
    46    98    99    1
    47   218   216    1
    48   108   105    1
    49   108   109    1
    50    41    42    1
    51   215   216    2
    52   215   214    1
    53   104    99   am
    54   104   105    1
    55   191   190    1
    56   203   205   ar
    57   207   205   ar
    58   209   210    1
    59   216   217    1
    60    42    45    1
    61    42    43    1
    62    99   100    2
    63   105   106    1
    64    39    38   ar
    65   106   107    2
    66   189   190    1
    67   190   193    1
    68   210   211    2
    69    43    44    2
    70    43    52   am
    71   179   178    1
    72    38    40   ar
    73    38    37    1
    74   193   195    1
    75   193   194    1
    76    33    34    1
    77   177   176    2
    78    52    53    1
    79    34    37    1
    80    34    35    1
    81    64    62    1
    82   187   186   ar
    83   178   180    1
    84   178   175    1
    85    57    58    1
    86    61    62    1
    87    61    58    1
    88    61    63    1
    89   176   175    1
    90   176   181   am
    91   194   196    1
    92    58    59    1
    93   184   183    2
    94     8     9    1
    95     8     7    1
    96    53    54    1
    97    53    56    1
    98   175   174    1
    99   182   183    1
   100   182   181    1
   101   182   185    1
   102    54    55    2
   103    35    36    2
   104   118   120   ar
   105   118   116   ar
   106   186   185    1
   107   186   188   ar
   108   120   119   ar
   109   111   112    1
   110     7     6    1
   111   115   116    1
   112   115   112    1
   113   116   117   ar
   114    59    60    2
   115    59    65   am
   116   112   113    1
   117   113   114    2
   118   133   132    1
   119   119   117   ar
   120    24    23    1
   121    65    66    1
   122   124   123    2
   123     6     5    1
   124    16    15    2
   125   132   129    1
   126    25    23    1
   127   121   122    1
   128    17    15   am
   129   129   128    1
   130   129   130    1
   131   142   141    1
   132   142   143    1
   133    23    22    1
   134    15    14    1
   135   123   128   am
   136   123   122    1
   137   141   136   am
   138    66    67    1
   139    66    69    1
   140     5     2    1
   141    77    78   ar
   142    77    75   ar
   143    78    76   ar
   144    75    72   ar
   145   134   130   am
   146   134   135    1
   147   143   144    2
   148    76    74   ar
   149    72    74   ar
   150    72    70   ar
   151    74    73   ar
   152    22    19    1
   153    70    69    1
   154    70    71   ar
   155    67    68    2
   156   130   131    2
   157   138   140    1
   158   138   135    1
   159   138   139    1
   160   122   125    1
   161    73    71   ar
   162   136   135    1
   163   136   137    2
   164   125   126    1
   165   125   127    1
   166    14    11    1
   167     4     3    2
   168     3     2    1
   169     3    10   am
   170     2     1    1
   171    10    11    1
   172    11    12    1
   173   152   151   ar
   174    19    20    1
   175    19    18    1
   176    20    21    2
   177    20    26   am
   178   151   153   ar
   179   151   150    1
   180    12    13    2
   181   173   171    1
   182    32    26    1
   183    32    31    1
   184    26    27    1
   185   150   149    1
   186   172   171    1
   187   171   170    2
   188   166   165    2
   189   165   164    1
   190    27    30    1
   191    27    28    1
   192    30    31    1
   193   161   160   ar
   194   162   160   ar
   195   160   159    1
   196   170   169    1
   197   168   169    1
   198   168   167    1
   199   159   158    1
   200   149   146    1
   201   163   164    1
   202    28    29    2
   203   164   167    1
   204   158   155    1
   205   146   145    1
   206   146   147    1
   207   155   154    1
   208   155   156    1
   209   156   157    2
   210   147   148    2
