@<TRIPOS>MOLECULE
tmp/1ybhA03.pdb
 127 124 0 0 0
SMALL
GASTEIGER

@<TRIPOS>ATOM
      1  N         68.2750   58.5560   44.5440 N.3   399  VAL399     -0.1231
      2  CA        66.9980   58.2200   45.1740 C.3   399  VAL399      0.1692
      3  C         66.8530   56.7090   45.2870 C.2   399  VAL399      0.2593
      4  O         67.1580   55.9750   44.3490 O.2   399  VAL399     -0.2718
      5  CB        65.8130   58.7860   44.3540 C.3   399  VAL399      0.0266
      6  CG1       64.5080   58.2100   44.8500 C.3   399  VAL399      0.0020
      7  CG2       65.7880   60.2970   44.4700 C.3   399  VAL399      0.0020
      8  N         66.3900   56.2500   46.4430 N.am  400  GLY400     -0.1942
      9  CA        66.2130   54.8240   46.6450 C.3   400  GLY400      0.2014
     10  C         66.7040   54.3630   48.0040 C.2   400  GLY400      0.2639
     11  O         66.7400   55.1420   48.9610 O.2   400  GLY400     -0.2714
     12  N         67.0840   53.0880   48.0870 N.am  401  GLN401     -0.1963
     13  CA        67.5710   52.5240   49.3370 C.3   401  GLN401      0.1733
     14  C         68.7990   53.2580   49.8660 C.2   401  GLN401      0.2616
     15  O         68.8440   53.6120   51.0460 O.2   401  GLN401     -0.2715
     16  CB        67.9060   51.0470   49.1680 C.3   401  GLN401      0.0408
     17  CG        66.7270   50.1650   48.8230 C.3   401  GLN401      0.0908
     18  CD        67.1210   48.6960   48.7700 C.2   401  GLN401      0.2608
     19  OE1       68.0960   48.3290   48.1140 O.2   401  GLN401     -0.2717
     20  NE2       66.3660   47.8530   49.4620 N.am  401  GLN401     -0.0878
     21  N         69.7910   53.4840   49.0080 N.am  402  HIS402     -0.1973
     22  CA        71.0000   54.1730   49.4440 C.3   402  HIS402      0.1656
     23  C         70.6710   55.5370   50.0440 C.2   402  HIS402      0.2291
     24  O         71.3200   55.9920   50.9950 O.2   402  HIS402     -0.2864
     25  CB        72.0030   54.3310   48.2870 C.3   402  HIS402      0.0771
     26  CG        71.5870   55.3040   47.2240 C.ar  402  HIS402      0.0820
     27  ND1       70.6350   55.0100   46.2700 N.ar  402  HIS402     -0.2267
     28  CD2       72.0300   56.5520   46.9400 C.ar  402  HIS402      0.1154
     29  CE1       70.5170   56.0320   45.4410 C.ar  402  HIS402      0.1986
     30  NE2       71.3540   56.9800   45.8240 N.ar  402  HIS402     -0.2212
     31  N         69.5000   54.9830   53.4900 N.3   405  TRP405     -0.1241
     32  CA        70.6230   54.6470   54.3470 C.3   405  TRP405      0.1605
     33  C         71.5110   55.8550   54.5850 C.2   405  TRP405      0.2264
     34  O         72.0320   56.0330   55.6850 O.2   405  TRP405     -0.2867
     35  CB        71.4330   53.4780   53.7730 C.3   405  TRP405      0.0550
     36  CG        70.6730   52.1840   53.8100 C.ar  405  TRP405      0.0003
     37  CD1       69.8520   51.7370   54.8150 C.ar  405  TRP405      0.0946
     38  CD2       70.6190   51.1980   52.7810 C.ar  405  TRP405      0.0152
     39  NE1       69.2820   50.5360   54.4630 N.ar  405  TRP405     -0.2442
     40  CE2       69.7380   50.1820   53.2190 C.ar  405  TRP405      0.0810
     41  CE3       71.2290   51.0730   51.5250 C.ar  405  TRP405      0.0012
     42  CZ2       69.4500   49.0560   52.4390 C.ar  405  TRP405      0.0191
     43  CZ3       70.9450   49.9610   50.7540 C.ar  405  TRP405      0.0001
     44  CH2       70.0610   48.9650   51.2140 C.ar  405  TRP405      0.0015
     45  N         65.9190   60.5430   40.4040 N.3   427  MET427     -0.1245
     46  CA        67.1880   59.8360   40.2890 C.3   427  MET427      0.1570
     47  C         68.1490   60.6690   39.4360 C.2   427  MET427      0.2261
     48  O         67.7140   61.4940   38.6300 O.2   427  MET427     -0.2867
     49  CB        66.9710   58.4730   39.6280 C.3   427  MET427      0.0387
     50  CG        66.3960   57.4190   40.5490 C.3   427  MET427      0.0595
     51  SD        65.9590   55.9400   39.6360 S.3   427  MET427     -0.1393
     52  CE        67.5770   55.2970   39.1980 C.3   427  MET427      0.0692
     53  N         73.6080   55.5020   43.9410 N.3   451  GLY451     -0.1210
     54  CA        73.1710   54.1460   43.6800 C.3   451  GLY451      0.1956
     55  C         73.6170   53.8920   42.2520 C.2   451  GLY451      0.2612
     56  O         73.8000   54.8490   41.4980 O.2   451  GLY451     -0.2717
     57  N         73.7930   52.6300   41.8630 N.am  452  ASP452     -0.1959
     58  CA        74.2600   52.3470   40.5090 C.3   452  ASP452      0.1840
     59  C         73.2350   52.7450   39.4590 C.2   452  ASP452      0.2623
     60  O         73.5980   53.0900   38.3400 O.2   452  ASP452     -0.2715
     61  CB        74.6660   50.8670   40.3510 C.3   452  ASP452      0.1450
     62  CG        73.5390   49.9000   40.6820 C.2   452  ASP452      0.3671
     63  OD1       73.0470   49.9070   41.8340 O.co2 452  ASP452     -0.2456
     64  OD2       73.1490   49.1240   39.7840 O.co2 452  ASP452     -0.2456
     65  N         71.9570   52.7060   39.8150 N.am  453  GLY453     -0.1940
     66  CA        70.9290   53.1030   38.8710 C.3   453  GLY453      0.2014
     67  C         70.9120   54.6200   38.7180 C.2   453  GLY453      0.2639
     68  O         70.9170   55.1440   37.6040 O.2   453  GLY453     -0.2714
     69  N         70.9120   55.3250   39.8480 N.am  454  SER454     -0.1949
     70  CA        70.8870   56.7850   39.8530 C.3   454  SER454      0.1924
     71  C         72.1680   57.3760   39.3020 C.2   454  SER454      0.2314
     72  O         72.1370   58.3550   38.5620 O.2   454  SER454     -0.2863
     73  CB        70.6890   57.3230   41.2720 C.3   454  SER454      0.2116
     74  OG        69.4910   56.8360   41.8370 O.3   454  SER454     -0.2180
     75  N         77.2010   52.9790   46.1760 N.3   477  LEU477     -0.1245
     76  CA        76.7300   51.7370   46.7870 C.3   477  LEU477      0.1561
     77  C         76.1240   50.9200   45.6570 C.2   477  LEU477      0.2260
     78  O         74.9310   51.0200   45.3660 O.2   477  LEU477     -0.2867
     79  CB        75.6870   52.0250   47.8660 C.3   477  LEU477      0.0270
     80  CG        76.2080   52.9040   49.0100 C.3   477  LEU477      0.0019
     81  CD1       75.1640   53.0130   50.1150 C.3   477  LEU477      0.0001
     82  CD2       77.4960   52.3120   49.5500 C.3   477  LEU477      0.0001
     83  N         74.6410   47.7980   43.9160 N.3   479  ASN479     -0.1240
     84  CA        73.9310   46.5650   44.2320 C.3   479  ASN479      0.1653
     85  C         73.3130   45.9430   42.9800 C.2   479  ASN479      0.2266
     86  O         72.4620   45.0580   43.0700 O.2   479  ASN479     -0.2867
     87  CB        72.8600   46.8250   45.2950 C.3   479  ASN479      0.1155
     88  CG        71.6840   47.6410   44.7720 C.2   479  ASN479      0.2627
     89  OD1       71.7280   48.2000   43.6720 O.2   479  ASN479     -0.2716
     90  ND2       70.6280   47.7190   45.5700 N.am  479  ASN479     -0.0877
     91  N         71.0100   46.5650   41.2170 N.3   481  HIS481     -0.1226
     92  CA        69.5550   46.6360   41.0850 C.3   481  HIS481      0.1752
     93  C         68.9780   48.0280   41.3360 C.2   481  HIS481      0.2596
     94  O         69.6840   48.9730   41.7070 O.2   481  HIS481     -0.2718
     95  CB        68.8720   45.6870   42.0810 C.3   481  HIS481      0.0759
     96  CG        69.0370   44.2350   41.7650 C.ar  481  HIS481      0.0818
     97  ND1       70.2400   43.5770   41.8930 N.ar  481  HIS481     -0.2268
     98  CD2       68.1440   43.3100   41.3360 C.ar  481  HIS481      0.1154
     99  CE1       70.0830   42.3080   41.5560 C.ar  481  HIS481      0.1986
    100  NE2       68.8200   42.1200   41.2140 N.ar  481  HIS481     -0.2212
    101  N         67.6720   48.1330   41.1090 N.am  482  LEU482     -0.1966
    102  CA        66.9260   49.3450   41.3960 C.3   482  LEU482      0.1728
    103  C         66.3810   48.9440   42.7640 C.2   482  LEU482      0.2617
    104  O         65.2400   48.5080   42.9040 O.2   482  LEU482     -0.2715
    105  CB        65.7960   49.5520   40.3860 C.3   482  LEU482      0.0311
    106  CG        66.2780   49.8990   38.9710 C.3   482  LEU482      0.0022
    107  CD1       65.0990   50.0090   38.0120 C.3   482  LEU482      0.0001
    108  CD2       67.0490   51.2050   39.0120 C.3   482  LEU482      0.0001
    109  N         67.2570   49.0580   43.7580 N.am  483  GLY483     -0.1940
    110  CA        66.9550   48.6820   45.1270 C.3   483  GLY483      0.2014
    111  C         65.5680   48.8600   45.7050 C.2   483  GLY483      0.2639
    112  O         64.9490   47.8870   46.1500 O.2   483  GLY483     -0.2714
    113  N         65.0820   50.0970   45.7150 N.am  484  MET484     -0.1963
    114  CA        63.7760   50.3870   46.2860 C.3   484  MET484      0.1736
    115  C         62.6360   49.6600   45.5810 C.2   484  MET484      0.2616
    116  O         61.7550   49.1140   46.2420 O.2   484  MET484     -0.2715
    117  CB        63.5300   51.9020   46.2910 C.3   484  MET484      0.0427
    118  CG        62.3080   52.3440   47.0880 C.3   484  MET484      0.0599
    119  SD        62.3710   51.8020   48.8140 S.3   484  MET484     -0.1393
    120  CE        63.5140   53.0080   49.4950 C.3   484  MET484      0.0692
    121  N         62.6460   49.6410   44.2500 N.am  485  VAL485     -0.1977
    122  CA        61.5860   48.9590   43.5120 C.3   485  VAL485      0.1596
    123  C         61.6620   47.4670   43.7910 C.2   485  VAL485      0.2287
    124  O         60.6400   46.7850   43.8880 O.2   485  VAL485     -0.2864
    125  CB        61.7140   49.1740   41.9960 C.3   485  VAL485      0.0276
    126  CG1       60.5720   48.4800   41.2730 C.3   485  VAL485      0.0022
    127  CG2       61.7040   50.6450   41.6880 C.3   485  VAL485      0.0022
@<TRIPOS>BOND
     1    68    67    2
     2   107   106    1
     3    60    59    2
     4    72    71    2
     5    48    47    2
     6    67    66    1
     7    67    69   am
     8    66    65    1
     9   106   108    1
    10   106   105    1
    11    52    51    1
    12    71    70    1
    13    47    46    1
    14    59    65   am
    15    59    58    1
    16    49    46    1
    17    49    50    1
    18    51    50    1
    19    64    62   ar
    20    69    70    1
    21    70    73    1
    22    46    45    1
    23    61    58    1
    24    61    62    1
    25   105   102    1
    26    58    57    1
    27    62    63   ar
    28    92    91    1
    29    92    93    1
    30    92    95    1
    31   101    93   am
    32   101   102    1
    33   100    98   ar
    34   100    99   ar
    35    73    74    1
    36   126   125    1
    37    93    94    2
    38    98    96   ar
    39   102   103    1
    40    56    55    2
    41    99    97   ar
    42   127   125    1
    43    96    97   ar
    44    96    95    1
    45    57    55   am
    46   125   122    1
    47    55    54    1
    48   103   104    2
    49   103   109   am
    50    85    86    2
    51    85    84    1
    52   122   123    1
    53   122   121    1
    54    89    88    2
    55    54    53    1
    56   109   110    1
    57   123   124    2
    58    83    84    1
    59    84    87    1
    60   121   115   am
    61     4     3    2
    62     5     7    1
    63     5     6    1
    64     5     2    1
    65     1     2    1
    66    88    87    1
    67    88    90   am
    68   110   111    1
    69     2     3    1
    70     3     8   am
    71    78    77    2
    72    29    30   ar
    73    29    27   ar
    74   115   116    2
    75   115   114    1
    76    77    76    1
    77   111   113   am
    78   111   112    2
    79   113   114    1
    80    30    28   ar
    81    75    76    1
    82    27    26   ar
    83   114   117    1
    84   117   118    1
    85     8     9    1
    86     9    10    1
    87    76    79    1
    88    28    26   ar
    89   118   119    1
    90    26    25    1
    91    79    80    1
    92    10    12   am
    93    10    11    2
    94    12    13    1
    95    19    18    2
    96    25    22    1
    97    18    17    1
    98    18    20   am
    99   119   120    1
   100    17    16    1
   101    21    22    1
   102    21    14   am
   103    80    82    1
   104    80    81    1
   105    16    13    1
   106    13    14    1
   107    22    23    1
   108    14    15    2
   109    23    24    2
   110    43    44   ar
   111    43    41   ar
   112    44    42   ar
   113    41    38   ar
   114    42    40   ar
   115    38    40   ar
   116    38    36   ar
   117    40    39   ar
   118    31    32    1
   119    35    36    1
   120    35    32    1
   121    36    37   ar
   122    32    33    1
   123    39    37   ar
   124    33    34    2
