@<TRIPOS>MOLECULE
tmp/1yboB00.pdb
 122 119 0 0 0
SMALL
GASTEIGER

@<TRIPOS>ATOM
      1  N         39.0240   66.2620   40.8240 N.3    95  LYS95      -0.1231
      2  CA        38.5750   67.0380   39.6770 C.3    95  LYS95       0.1693
      3  C         39.6400   68.0520   39.2140 C.2    95  LYS95       0.2592
      4  O         40.2970   68.6900   40.0430 O.2    95  LYS95      -0.2718
      5  CB        37.3100   67.8190   40.0260 C.3    95  LYS95       0.0285
      6  CG        36.1050   66.9640   40.3970 C.3    95  LYS95       0.0035
      7  CD        34.9570   67.8440   40.8070 C.3    95  LYS95       0.0206
      8  CE        33.7110   67.0340   41.0100 C.3    95  LYS95       0.1093
      9  NZ        32.6750   68.0810   41.2270 N.3    95  LYS95      -0.1314
     10  N         39.7790   68.1660   37.8920 N.am   96  ASP96      -0.1974
     11  CA        40.5950   69.1660   37.2220 C.3    96  ASP96       0.1709
     12  C         39.7910   70.4750   37.0470 C.2    96  ASP96       0.2293
     13  O         38.7160   70.6200   37.6320 O.2    96  ASP96      -0.2864
     14  CB        41.1380   68.5910   35.9010 C.3    96  ASP96       0.1436
     15  CG        40.0790   68.3870   34.8340 C.2    96  ASP96       0.3671
     16  OD1       38.9220   68.8640   34.8650 O.co2  96  ASP96      -0.2456
     17  OD2       40.4480   67.6820   33.8830 O.co2  96  ASP96      -0.2456
     18  N         38.0360   71.6630   34.6150 N.3    98  THR98      -0.1203
     19  CA        36.7830   71.4680   33.8960 C.3    98  THR98       0.1994
     20  C         35.7690   70.7370   34.7830 C.2    98  THR98       0.2618
     21  O         34.6640   70.4310   34.3270 O.2    98  THR98      -0.2717
     22  CB        37.0220   70.6710   32.5970 C.3    98  THR98       0.1784
     23  OG1       37.1250   69.2800   32.9100 O.3    98  THR98      -0.2211
     24  CG2       38.3000   71.1020   31.8600 C.3    98  THR98       0.0376
     25  N         36.1350   70.4620   36.0350 N.am   99  GLY99      -0.1942
     26  CA        35.2870   69.7270   36.9600 C.3    99  GLY99       0.2014
     27  C         35.2130   68.2180   36.7950 C.2    99  GLY99       0.2639
     28  O         34.3330   67.5860   37.4070 O.2    99  GLY99      -0.2714
     29  N         36.1240   67.6450   36.0080 N.am  100  HIS100     -0.1959
     30  CA        36.1580   66.1890   35.7840 C.3   100  HIS100      0.1787
     31  C         37.3470   65.4260   36.3730 C.2   100  HIS100      0.2620
     32  O         38.4700   65.9150   36.4540 O.2   100  HIS100     -0.2715
     33  CB        36.0830   65.8060   34.2990 C.3   100  HIS100      0.0785
     34  CG        34.9520   66.4270   33.5410 C.ar  100  HIS100      0.0821
     35  ND1       35.1470   67.4280   32.6120 N.ar  100  HIS100     -0.2267
     36  CD2       33.6180   66.1940   33.5720 C.ar  100  HIS100      0.1154
     37  CE1       33.9830   67.7830   32.1030 C.ar  100  HIS100      0.1986
     38  NE2       33.0400   67.0500   32.6670 N.ar  100  HIS100     -0.2212
     39  N         37.0470   64.1970   36.7830 N.am  101  VAL101     -0.1963
     40  CA        37.9970   63.2180   37.3090 C.3   101  VAL101      0.1727
     41  C         38.5730   62.3310   36.1930 C.2   101  VAL101      0.2617
     42  O         39.6590   61.7930   36.4140 O.2   101  VAL101     -0.2715
     43  CB        37.4740   62.3870   38.5050 C.3   101  VAL101      0.0290
     44  CG1       37.1410   63.2810   39.6560 C.3   101  VAL101      0.0023
     45  CG2       36.2240   61.5980   38.1700 C.3   101  VAL101      0.0023
     46  N         37.9120   62.1810   35.0410 N.am  102  GLY102     -0.1940
     47  CA        38.4650   61.4350   33.9010 C.3   102  GLY102      0.2014
     48  C         37.9880   60.0810   33.4040 C.2   102  GLY102      0.2639
     49  O         38.7900   59.2440   32.9900 O.2   102  GLY102     -0.2714
     50  N         36.6820   59.8420   33.4230 N.am  103  PHE103     -0.1959
     51  CA        36.1950   58.5620   32.9020 C.3   103  PHE103      0.1771
     52  C         34.8010   58.6850   32.2900 C.2   103  PHE103      0.2619
     53  O         33.9800   59.5240   32.6670 O.2   103  PHE103     -0.2715
     54  CB        36.2690   57.4270   33.9370 C.3   103  PHE103      0.0574
     55  CG        35.3360   57.5660   35.1040 C.ar  103  PHE103     -0.0200
     56  CD1       35.7540   58.1380   36.2980 C.ar  103  PHE103     -0.0042
     57  CD2       34.0450   57.0780   35.0230 C.ar  103  PHE103     -0.0042
     58  CE1       34.8720   58.2450   37.3560 C.ar  103  PHE103     -0.0003
     59  CE2       33.1770   57.1750   36.0730 C.ar  103  PHE103     -0.0003
     60  CZ        33.5750   57.7630   37.2420 C.ar  103  PHE103     -0.0000
     61  N         34.5760   57.8040   31.3280 N.am  104  ILE104     -0.1963
     62  CA        33.2780   57.6080   30.7180 C.3   104  ILE104      0.1727
     63  C         32.5730   56.4300   31.3740 C.2   104  ILE104      0.2616
     64  O         33.1560   55.3820   31.6310 O.2   104  ILE104     -0.2715
     65  CB        33.3810   57.3530   29.2100 C.3   104  ILE104      0.0290
     66  CG1       34.2360   58.4270   28.5210 C.3   104  ILE104      0.0022
     67  CG2       31.9780   57.2410   28.6180 C.3   104  ILE104      0.0023
     68  CD1       33.7050   59.8370   28.6490 C.3   104  ILE104      0.0001
     69  N         31.2890   56.6300   31.6280 N.am  105  PHE105     -0.1960
     70  CA        30.4380   55.6090   32.2090 C.3   105  PHE105      0.1771
     71  C         29.0650   55.5190   31.5310 C.2   105  PHE105      0.2619
     72  O         28.5570   56.4560   30.8840 O.2   105  PHE105     -0.2715
     73  CB        30.3320   55.8490   33.7190 C.3   105  PHE105      0.0574
     74  CG        29.4550   57.0020   34.0950 C.ar  105  PHE105     -0.0200
     75  CD1       28.1120   56.7910   34.3840 C.ar  105  PHE105     -0.0042
     76  CD2       29.9810   58.2860   34.1700 C.ar  105  PHE105     -0.0042
     77  CE1       27.3170   57.8440   34.7210 C.ar  105  PHE105     -0.0003
     78  CE2       29.1550   59.3620   34.5190 C.ar  105  PHE105     -0.0003
     79  CZ        27.8290   59.1280   34.7960 C.ar  105  PHE105     -0.0000
     80  N         28.4920   54.3330   31.7100 N.am  106  LYS106     -0.1977
     81  CA        27.1560   54.0540   31.2010 C.3   106  LYS106      0.1596
     82  C         26.6140   52.8060   31.8760 C.2   106  LYS106      0.2287
     83  O         27.2960   51.7910   31.9600 O.2   106  LYS106     -0.2864
     84  CB        27.1010   53.8870   29.6710 C.3   106  LYS106      0.0298
     85  CG        25.6780   53.9450   29.1320 C.3   106  LYS106      0.0038
     86  CD        25.5410   53.2940   27.7630 C.3   106  LYS106      0.0206
     87  CE        24.0820   53.0360   27.3670 C.3   106  LYS106      0.1093
     88  NZ        24.0240   52.1560   26.1600 N.3   106  LYS106     -0.1314
     89  N         39.9010   58.5680   30.2680 N.3   114  VAL114     -0.1245
     90  CA        40.4310   59.7410   29.5520 C.3   114  VAL114      0.1561
     91  C         41.8980   59.9180   29.9240 C.2   114  VAL114      0.2260
     92  O         42.2220   59.9340   31.1140 O.2   114  VAL114     -0.2867
     93  CB        39.7600   61.0750   29.9500 C.3   114  VAL114      0.0252
     94  CG1       40.2840   62.2610   29.1160 C.3   114  VAL114      0.0019
     95  CG2       38.2400   60.9890   29.7960 C.3   114  VAL114      0.0019
     96  N         22.0180   56.9460   35.1990 N.3   143  ASP143     -0.1225
     97  CA        23.3050   57.6060   34.9800 C.3   143  ASP143      0.1805
     98  C         23.1780   59.1050   35.1990 C.2   143  ASP143      0.2598
     99  O         24.1200   59.7710   35.5960 O.2   143  ASP143     -0.2718
    100  CB        23.8460   57.3520   33.5690 C.3   143  ASP143      0.1424
    101  CG        24.1050   55.8910   33.2740 C.2   143  ASP143      0.3668
    102  OD1       24.2860   55.0860   34.2010 O.co2 143  ASP143     -0.2456
    103  OD2       24.1420   55.4900   32.0940 O.co2 143  ASP143     -0.2456
    104  N         21.9970   59.6410   34.9260 N.am  144  SER144     -0.1952
    105  CA        21.6610   61.0380   35.2280 C.3   144  SER144      0.1924
    106  C         21.7840   61.3970   36.7190 C.2   144  SER144      0.2314
    107  O         22.2830   62.4590   37.0730 O.2   144  SER144     -0.2863
    108  CB        20.2500   61.3540   34.7180 C.3   144  SER144      0.2116
    109  OG        19.6030   62.2060   35.6450 O.3   144  SER144     -0.2180
    110  N         25.6210   61.2970   37.4400 N.3   147  ALA147     -0.1245
    111  CA        26.1750   62.5510   36.9410 C.3   147  ALA147      0.1562
    112  C         25.8380   63.7060   37.8760 C.2   147  ALA147      0.2260
    113  O         26.7050   64.5180   38.1330 O.2   147  ALA147     -0.2867
    114  CB        25.6640   62.8430   35.5460 C.3   147  ALA147      0.0290
    115  N         28.1240   63.4100   40.9510 N.3   150  LEU150     -0.1245
    116  CA        29.4390   63.8220   40.4750 C.3   150  LEU150      0.1561
    117  C         29.5910   65.3430   40.3860 C.2   150  LEU150      0.2260
    118  O         30.5160   65.9120   40.9650 O.2   150  LEU150     -0.2867
    119  CB        29.7840   63.0950   39.1610 C.3   150  LEU150      0.0270
    120  CG        30.0240   61.5810   39.2660 C.3   150  LEU150      0.0019
    121  CD1       30.1040   60.8860   37.9050 C.3   150  LEU150      0.0001
    122  CD2       31.3260   61.3170   39.9840 C.3   150  LEU150      0.0001
@<TRIPOS>BOND
     1    88    87    1
     2    87    86    1
     3    86    85    1
     4    66    68    1
     5    66    65    1
     6    67    65    1
     7    94    93    1
     8    85    84    1
     9    65    62    1
    10    90    91    1
    11    90    93    1
    12    90    89    1
    13    84    81    1
    14    95    93    1
    15    91    92    2
    16    62    61    1
    17    62    63    1
    18    72    71    2
    19    81    80    1
    20    81    82    1
    21    61    52   am
    22    63    69   am
    23    63    64    2
    24    71    80   am
    25    71    70    1
    26    69    70    1
    27    24    22    1
    28    82    83    2
    29   103   101   ar
    30    37    35   ar
    31    37    38   ar
    32    70    73    1
    33    52    53    2
    34    52    51    1
    35    22    23    1
    36    22    19    1
    37    35    34   ar
    38    38    36   ar
    39    51    50    1
    40    51    54    1
    41    49    48    2
    42   101   100    1
    43   101   102   ar
    44    48    50   am
    45    48    47    1
    46    34    36   ar
    47    34    33    1
    48   100    97    1
    49    73    74    1
    50    17    15   ar
    51    19    18    1
    52    19    20    1
    53    47    46    1
    54    54    55    1
    55    74    76   ar
    56    74    75   ar
    57    76    78   ar
    58    33    30    1
    59    21    20    2
    60    75    77   ar
    61    78    79   ar
    62   108   105    1
    63   108   109    1
    64    77    79   ar
    65    20    25   am
    66    15    16   ar
    67    15    14    1
    68   104    98   am
    69   104   105    1
    70    97    98    1
    71    97    96    1
    72    57    55   ar
    73    57    59   ar
    74    46    41   am
    75    55    56   ar
    76    98    99    2
    77   105   106    1
    78   114   111    1
    79    30    29    1
    80    30    31    1
    81    14    11    1
    82    29    27   am
    83    25    26    1
    84    59    60   ar
    85    41    42    2
    86    41    40    1
    87    56    58   ar
    88    31    32    2
    89    31    39   am
    90   106   107    2
    91    39    40    1
    92    27    26    1
    93    27    28    2
    94   111   110    1
    95   111   112    1
    96    12    11    1
    97    12    13    2
    98    11    10    1
    99    60    58   ar
   100    40    43    1
   101   112   113    2
   102    10     3   am
   103   121   120    1
   104    45    43    1
   105    43    44    1
   106   119   120    1
   107   119   116    1
   108     3     2    1
   109     3     4    2
   110   120   122    1
   111     2     5    1
   112     2     1    1
   113     5     6    1
   114   117   116    1
   115   117   118    2
   116     6     7    1
   117   116   115    1
   118     7     8    1
   119     8     9    1
