@<TRIPOS>MOLECULE
tmp/1ybqA00.pdb
 193 184 0 0 0
SMALL
GASTEIGER

@<TRIPOS>ATOM
      1  N         40.8620   25.6090   22.2960 N.3    68  HIS68      -0.1241
      2  CA        42.3150   25.5880   22.2570 C.3    68  HIS68       0.1621
      3  C         42.9040   26.6270   23.1600 C.2    68  HIS68       0.2264
      4  O         43.2790   27.6940   22.7040 O.2    68  HIS68      -0.2867
      5  CB        42.7460   25.8670   20.8070 C.3    68  HIS68       0.0745
      6  CG        44.1140   25.3750   20.5050 C.ar   68  HIS68       0.0817
      7  ND1       44.3190   24.3520   19.5970 N.ar   68  HIS68      -0.2268
      8  CD2       45.3200   25.7560   21.0000 C.ar   68  HIS68       0.1154
      9  CE1       45.6320   24.1480   19.5220 C.ar   68  HIS68       0.1986
     10  NE2       46.2580   24.9840   20.3510 N.ar   68  HIS68      -0.2212
     11  N         45.5840   27.4460   26.5010 N.3    70  HIS70      -0.1241
     12  CA        46.6020   27.0400   27.4510 C.3    70  HIS70       0.1621
     13  C         46.2020   27.5070   28.8480 C.2    70  HIS70       0.2264
     14  O         46.8040   28.4170   29.3870 O.2    70  HIS70      -0.2867
     15  CB        47.9750   27.6330   27.0510 C.3    70  HIS70       0.0745
     16  CG        48.3500   27.0500   25.7370 C.ar   70  HIS70       0.0817
     17  ND1       49.1800   25.9620   25.6510 N.ar   70  HIS70      -0.2268
     18  CD2       47.8870   27.3430   24.4810 C.ar   70  HIS70       0.1154
     19  CE1       49.2390   25.6250   24.3540 C.ar   70  HIS70       0.1986
     20  NE2       48.4930   26.4420   23.6260 N.ar   70  HIS70      -0.2212
     21  N         51.6780   28.5730   28.9490 N.3    74  GLY74      -0.1210
     22  CA        52.3100   27.8170   27.9050 C.3    74  GLY74       0.1956
     23  C         53.6440   28.4400   27.7030 C.2    74  GLY74       0.2612
     24  O         54.3000   28.8570   28.6730 O.2    74  GLY74      -0.2717
     25  N         54.0110   28.5300   26.4440 N.am   75  GLY75      -0.1956
     26  CA        55.2860   29.1560   26.1080 C.3    75  GLY75       0.1869
     27  C         56.5160   28.3560   26.5710 C.2    75  GLY75       0.2309
     28  O         56.4460   27.1550   26.7470 O.2    75  GLY75      -0.2863
     29  N         59.5430   28.5090   24.7260 N.3    77  GLU77      -0.1245
     30  CA        60.4890   28.3890   23.6030 C.3    77  GLU77       0.1567
     31  C         61.7650   29.2140   23.6750 C.2    77  GLU77       0.2260
     32  O         62.7100   29.0240   22.9210 O.2    77  GLU77      -0.2867
     33  CB        59.8420   28.5850   22.2310 C.3    77  GLU77       0.0388
     34  CG        58.8400   27.4840   21.9390 C.3    77  GLU77       0.1160
     35  CD        57.4530   27.8760   22.3300 C.2    77  GLU77       0.3649
     36  OE1       57.2080   28.6650   23.2290 O.co2  77  GLU77      -0.2457
     37  OE2       56.5400   27.2750   21.6070 O.co2  77  GLU77      -0.2457
     38  N         51.3600   22.5550   25.2760 N.3   105  GLY105     -0.1210
     39  CA        52.0280   22.7290   23.9840 C.3   105  GLY105      0.1956
     40  C         53.4460   22.2150   23.9680 C.2   105  GLY105      0.2613
     41  O         53.7390   21.0640   24.2580 O.2   105  GLY105     -0.2717
     42  N         54.3520   23.0950   23.6100 N.am  106  THR106     -0.1938
     43  CA        55.7340   22.7130   23.4980 C.3   106  THR106      0.2028
     44  C         56.2810   22.0730   24.7550 C.2   106  THR106      0.2642
     45  O         56.8680   20.9960   24.7550 O.2   106  THR106     -0.2714
     46  CB        56.5890   23.9270   23.0820 C.3   106  THR106      0.1808
     47  OG1       56.0160   24.5470   21.9410 O.3   106  THR106     -0.2208
     48  CG2       57.9840   23.4700   22.7070 C.3   106  THR106      0.0379
     49  N         56.0900   22.7610   25.8370 N.am  107  ASP107     -0.1971
     50  CA        56.6670   22.2670   27.0690 C.3   107  ASP107      0.1709
     51  C         55.7980   21.3480   27.8720 C.2   107  ASP107      0.2293
     52  O         54.7390   21.7430   28.3590 O.2   107  ASP107     -0.2864
     53  CB        57.0170   23.4750   27.9510 C.3   107  ASP107      0.1436
     54  CG        57.5450   23.1440   29.3450 C.2   107  ASP107      0.3671
     55  OD1       57.7240   22.0250   29.8110 O.co2 107  ASP107     -0.2456
     56  OD2       57.7630   24.2380   30.0130 O.co2 107  ASP107     -0.2456
     57  N         52.9150   18.2140   22.9140 N.3   137  TYR137     -0.1241
     58  CA        53.5570   18.1230   21.6150 C.3   137  TYR137      0.1605
     59  C         54.2390   16.7950   21.5640 C.2   137  TYR137      0.2264
     60  O         54.1900   16.0800   20.5700 O.2   137  TYR137     -0.2867
     61  CB        54.6340   19.2060   21.3490 C.3   137  TYR137      0.0534
     62  CG        54.2110   20.5860   20.7970 C.ar  137  TYR137     -0.0201
     63  CD1       52.9390   21.1390   20.9920 C.ar  137  TYR137     -0.0009
     64  CD2       55.1500   21.3670   20.1130 C.ar  137  TYR137     -0.0009
     65  CE1       52.6000   22.4040   20.5030 C.ar  137  TYR137      0.0417
     66  CE2       54.8410   22.6330   19.6120 C.ar  137  TYR137      0.0417
     67  CZ        53.5640   23.1540   19.8200 C.ar  137  TYR137      0.1957
     68  OH        53.2700   24.3960   19.3390 O.3   137  TYR137     -0.2866
     69  N         46.3600   15.3920   22.6710 N.3   162  LYS162     -0.1245
     70  CA        47.0820   16.3780   21.8990 C.3   162  LYS162      0.1561
     71  C         48.4530   15.8470   21.4550 C.2   162  LYS162      0.2260
     72  O         49.0740   15.0410   22.1470 O.2   162  LYS162     -0.2867
     73  CB        47.2310   17.6510   22.7570 C.3   162  LYS162      0.0271
     74  CG        48.2170   18.6690   22.1860 C.3   162  LYS162      0.0035
     75  CD        47.5660   19.7090   21.2850 C.3   162  LYS162      0.0206
     76  CE        48.5560   20.6180   20.5680 C.3   162  LYS162      0.1093
     77  NZ        48.7460   21.9190   21.1970 N.3   162  LYS162     -0.1314
     78  N         59.5160   21.3700   16.3210 N.3   169  ARG169     -0.1245
     79  CA        59.4860   21.1610   17.7700 C.3   169  ARG169      0.1563
     80  C         58.7810   19.8630   18.1090 C.2   169  ARG169      0.2260
     81  O         58.4830   19.5740   19.2810 O.2   169  ARG169     -0.2867
     82  CB        58.8720   22.3200   18.5630 C.3   169  ARG169      0.0307
     83  CG        59.6040   23.6680   18.4790 C.3   169  ARG169      0.0489
     84  CD        58.6570   24.8720   18.7610 C.3   169  ARG169      0.2205
     85  NE        57.5950   25.0090   17.7420 N.pl3 169  ARG169     -0.0865
     86  CZ        56.5560   25.8420   17.7520 C.cat 169  ARG169      0.5346
     87  NH1       56.3070   26.7260   18.7300 N.pl3 169  ARG169      0.1354
     88  NH2       55.7280   25.7540   16.7160 N.pl3 169  ARG169      0.1354
     89  N         48.7500   19.6420   16.3830 N.3   201  HIS201     -0.1241
     90  CA        49.3010   20.9590   16.1680 C.3   201  HIS201      0.1621
     91  C         50.0620   20.8410   14.8510 C.2   201  HIS201      0.2264
     92  O         50.7930   19.9000   14.6700 O.2   201  HIS201     -0.2867
     93  CB        50.2840   21.4210   17.2760 C.3   201  HIS201      0.0745
     94  CG        51.3830   22.3330   16.7890 C.ar  201  HIS201      0.0817
     95  ND1       51.3910   23.6940   17.0750 N.ar  201  HIS201     -0.2268
     96  CD2       52.5040   22.0580   16.0590 C.ar  201  HIS201      0.1154
     97  CE1       52.4890   24.2030   16.5250 C.ar  201  HIS201      0.1986
     98  NE2       53.1750   23.2490   15.9000 N.ar  201  HIS201     -0.2212
     99  N         55.1410   24.3690   10.3380 N.3   204  ASP204     -0.1239
    100  CA        55.4270   24.8370    9.0090 C.3   204  ASP204      0.1674
    101  C         56.1720   23.8270    8.1410 C.2   204  ASP204      0.2266
    102  O         56.5360   24.1240    7.0090 O.2   204  ASP204     -0.2867
    103  CB        56.0550   26.2670    9.0760 C.3   204  ASP204      0.1410
    104  CG        55.0790   27.3960    9.4220 C.2   204  ASP204      0.3668
    105  OD1       53.9340   27.4070    9.0050 O.co2 204  ASP204     -0.2456
    106  OD2       55.5600   28.3750   10.1860 O.co2 204  ASP204     -0.2456
    107  N         45.6780   25.2650   13.5960 N.3   230  HIS230     -0.1241
    108  CA        46.5970   26.2850   13.0520 C.3   230  HIS230      0.1621
    109  C         46.8160   26.1020   11.5290 C.2   230  HIS230      0.2264
    110  O         47.8570   26.4230   10.9980 O.2   230  HIS230     -0.2867
    111  CB        47.9570   26.3070   13.7700 C.3   230  HIS230      0.0745
    112  CG        47.9550   26.1550   15.2790 C.ar  230  HIS230      0.0817
    113  ND1       47.4650   27.1340   16.1370 N.ar  230  HIS230     -0.2268
    114  CD2       48.4640   25.1530   16.0690 C.ar  230  HIS230      0.1154
    115  CE1       47.6260   26.6960   17.3850 C.ar  230  HIS230      0.1986
    116  NE2       48.2340   25.5060   17.3840 N.ar  230  HIS230     -0.2212
    117  N         48.2680   28.8320    9.1610 N.3   233  ARG233     -0.1245
    118  CA        49.6380   29.2550    9.3920 C.3   233  ARG233      0.1563
    119  C         50.4590   29.4200    8.1400 C.2   233  ARG233      0.2260
    120  O         51.4470   30.1690    8.1340 O.2   233  ARG233     -0.2867
    121  CB        50.3620   28.4320   10.4440 C.3   233  ARG233      0.0307
    122  CG        50.5460   26.9570   10.0700 C.3   233  ARG233      0.0489
    123  CD        51.4080   26.2460   11.1040 C.3   233  ARG233      0.2205
    124  NE        52.5020   27.0930   11.6090 N.pl3 233  ARG233     -0.0865
    125  CZ        52.8480   27.2860   12.8960 C.cat 233  ARG233      0.5346
    126  NH1       52.2250   26.6680   13.9100 N.pl3 233  ARG233      0.1354
    127  NH2       53.8610   28.1170   13.1630 N.pl3 233  ARG233      0.1354
    128  N         43.0380   29.1310   13.5630 N.3   254  THR254     -0.1218
    129  CA        43.4300   29.8580   14.7750 C.3   254  THR254      0.1862
    130  C         43.2270   31.3030   14.5280 C.2   254  THR254      0.2287
    131  O         43.6800   31.7690   13.4720 O.2   254  THR254     -0.2866
    132  CB        44.8850   29.5960   15.2060 C.3   254  THR254      0.1770
    133  OG1       44.9910   28.1970   15.3690 O.3   254  THR254     -0.2211
    134  CG2       45.1970   30.2870   16.5520 C.3   254  THR254      0.0375
    135  N         44.2480   33.7860   16.3530 N.3   256  SER256     -0.1202
    136  CA        45.4370   34.5070   16.7650 C.3   256  SER256      0.2020
    137  C         46.5300   34.6160   15.6910 C.2   256  SER256      0.2618
    138  O         47.6050   35.1240   15.9760 O.2   256  SER256     -0.2717
    139  CB        45.9680   33.9440   18.0810 C.3   256  SER256      0.2103
    140  OG        46.5730   32.6800   17.8270 O.3   256  SER256     -0.2182
    141  N         46.2370   34.1720   14.4640 N.am  257  ILE257     -0.1979
    142  CA        47.1380   34.2070   13.3110 C.3   257  ILE257      0.1595
    143  C         46.5310   35.0780   12.2350 C.2   257  ILE257      0.2287
    144  O         45.5250   34.7000   11.6360 O.2   257  ILE257     -0.2864
    145  CB        47.2100   32.7960   12.7210 C.3   257  ILE257      0.0276
    146  CG1       47.7170   31.8100   13.7640 C.3   257  ILE257      0.0022
    147  CG2       48.0370   32.6890   11.4360 C.3   257  ILE257      0.0022
    148  CD1       48.0130   30.4450   13.1530 C.3   257  ILE257      0.0001
    149  N         43.8820   29.8170   20.9120 N.3   285  ASN285     -0.1240
    150  CA        45.2510   29.5540   21.2750 C.3   285  ASN285      0.1653
    151  C         45.5980   30.5010   22.4520 C.2   285  ASN285      0.2266
    152  O         46.7600   30.7890   22.7300 O.2   285  ASN285     -0.2867
    153  CB        46.2900   29.7130   20.1420 C.3   285  ASN285      0.1155
    154  CG        47.6470   29.2020   20.6170 C.2   285  ASN285      0.2627
    155  OD1       47.7270   28.1040   21.1850 O.2   285  ASN285     -0.2716
    156  ND2       48.6940   30.0270   20.5120 N.am  285  ASN285     -0.0877
    157  N         48.7900   30.9910   24.8810 N.3   288  GLY288     -0.1210
    158  CA        49.9080   30.2750   24.3350 C.3   288  GLY288      0.1956
    159  C         50.9170   31.2870   23.8430 C.2   288  GLY288      0.2613
    160  O         50.5910   32.4390   23.5890 O.2   288  GLY288     -0.2717
    161  N         52.1510   30.8820   23.6980 N.am  289  SER289     -0.1938
    162  CA        53.0840   31.8290   23.1570 C.3   289  SER289      0.2055
    163  C         52.9250   31.8640   21.6210 C.2   289  SER289      0.2643
    164  O         52.4240   30.9510   20.9290 O.2   289  SER289     -0.2714
    165  CB        54.5310   31.5100   23.5350 C.3   289  SER289      0.2130
    166  OG        54.9350   30.3410   22.8340 O.3   289  SER289     -0.2179
    167  N         53.3870   32.9590   21.0730 N.am  290  GLN290     -0.1963
    168  CA        53.3770   33.1590   19.6490 C.3   290  GLN290      0.1718
    169  C         54.8030   33.4450   19.2380 C.2   290  GLN290      0.2458
    170  O         55.2290   34.6130   19.1760 O.2   290  GLN290     -0.2730
    171  CB        52.5020   34.3500   19.2810 C.3   290  GLN290      0.0407
    172  CG        51.0010   34.0940   19.5110 C.3   290  GLN290      0.0908
    173  CD        50.2260   35.3260   19.1380 C.2   290  GLN290      0.2608
    174  OE1       49.4030   35.2780   18.2080 O.2   290  GLN290     -0.2717
    175  NE2       50.5360   36.4610   19.8080 N.am  290  GLN290     -0.0878
    176  N         55.5240   32.3370   19.0580 N.am  291  PRO291     -0.2716
    177  CA        56.9300   32.3660   18.6980 C.3   291  PRO291      0.1536
    178  C         57.1100   32.2730   17.1900 C.2   291  PRO291      0.2598
    179  O         56.3920   31.5700   16.4570 O.2   291  PRO291     -0.2715
    180  CB        57.5690   31.1530   19.3920 C.3   291  PRO291      0.0310
    181  CG        56.4120   30.2310   19.7900 C.3   291  PRO291      0.0237
    182  CD        55.1130   30.9910   19.5540 C.3   291  PRO291      0.0939
    183  N         58.0770   33.0290   16.7270 N.am  292  PHE292     -0.1974
    184  CA        58.3880   33.0560   15.3160 C.3   292  PHE292      0.1639
    185  C         59.8020   32.5700   15.0990 C.2   292  PHE292      0.2290
    186  O         60.7500   32.9520   15.8010 O.2   292  PHE292     -0.2864
    187  CB        58.0880   34.4170   14.6700 C.3   292  PHE292      0.0560
    188  CG        56.6170   34.7290   14.8180 C.ar  292  PHE292     -0.0200
    189  CD1       56.0210   34.8330   16.0780 C.ar  292  PHE292     -0.0042
    190  CD2       55.8190   34.8750   13.6830 C.ar  292  PHE292     -0.0042
    191  CE1       54.6630   35.1100   16.2250 C.ar  292  PHE292     -0.0003
    192  CE2       54.4600   35.1730   13.8070 C.ar  292  PHE292     -0.0003
    193  CZ        53.8890   35.2650   15.0770 C.ar  292  PHE292     -0.0000
@<TRIPOS>BOND
     1   102   101    2
     2   120   119    2
     3   119   118    1
     4   101   100    1
     5   105   104   ar
     6   100   103    1
     7   100    99    1
     8   103   104    1
     9   117   118    1
    10   118   121    1
    11   104   106   ar
    12   122   121    1
    13   122   123    1
    14   110   109    2
    15   123   124    1
    16   147   145    1
    17   109   108    1
    18   124   125    2
    19   144   143    2
    20   143   142    1
    21   145   142    1
    22   145   146    1
    23   125   127    1
    24   125   126    1
    25   108   107    1
    26   108   111    1
    27   148   146    1
    28   142   141    1
    29   131   130    2
    30   128   129    1
    31   190   192   ar
    32   190   188   ar
    33   111   112    1
    34   192   193   ar
    35   141   137   am
    36   130   129    1
    37   187   188    1
    38   187   184    1
    39    92    91    2
    40   129   132    1
    41   188   189   ar
    42    91    90    1
    43   193   191   ar
    44   185   184    1
    45   185   186    2
    46   132   133    1
    47   132   134    1
    48   112   114   ar
    49   112   113   ar
    50   184   183    1
    51   137   138    2
    52   137   136    1
    53    98    96   ar
    54    98    97   ar
    55    96    94   ar
    56   114   116   ar
    57   189   191   ar
    58   113   115   ar
    59    90    89    1
    60    90    93    1
    61    78    79    1
    62   135   136    1
    63   179   178    2
    64    97    95   ar
    65    88    86    1
    66   183   178   am
    67   136   139    1
    68    94    95   ar
    69    94    93    1
    70   178   177    1
    71   116   115   ar
    72    85    86    2
    73    85    84    1
    74    86    87    1
    75    79    80    1
    76    79    82    1
    77   140   139    1
    78    80    81    2
    79   174   173    2
    80    83    82    1
    81    83    84    1
    82   177   176    1
    83   177   180    1
    84   176   169   am
    85   176   182    1
    86   173   172    1
    87   173   175   am
    88   170   169    2
    89   169   168    1
    90   171   172    1
    91   171   168    1
    92    68    67    1
    93   180   181    1
    94     9     7   ar
    95     9    10   ar
    96   182   181    1
    97     7     6   ar
    98    66    67   ar
    99    66    64   ar
   100   168   167    1
   101    67    65   ar
   102    64    62   ar
   103   153   154    1
   104   153   150    1
   105    10     8   ar
   106    65    63   ar
   107     6     5    1
   108     6     8   ar
   109   156   154   am
   110    76    77    1
   111    76    75    1
   112    60    59    2
   113   154   155    2
   114    62    63   ar
   115    62    61    1
   116     5     2    1
   117   149   150    1
   118   164   163    2
   119   167   163   am
   120   150   151    1
   121    75    74    1
   122    61    58    1
   123    71    70    1
   124    71    72    2
   125    59    58    1
   126    37    35   ar
   127    58    57    1
   128   163   162    1
   129    70    69    1
   130    70    73    1
   131    34    33    1
   132    34    35    1
   133    47    46    1
   134    74    73    1
   135    33    30    1
   136     2     1    1
   137     2     3    1
   138    35    36   ar
   139   151   152    2
   140     4     3    2
   141    48    46    1
   142   166   165    1
   143    32    31    2
   144    46    43    1
   145   162   165    1
   146   162   161    1
   147    43    42    1
   148    43    44    1
   149   160   159    2
   150    30    31    1
   151    30    29    1
   152    42    40   am
   153    20    19   ar
   154    20    18   ar
   155   161   159   am
   156   159   158    1
   157    40    39    1
   158    40    41    2
   159    39    38    1
   160   158   157    1
   161    19    17   ar
   162    18    16   ar
   163    45    44    2
   164    44    49   am
   165    17    16   ar
   166    16    15    1
   167    49    50    1
   168    26    25    1
   169    26    27    1
   170    25    23   am
   171    11    12    1
   172    27    28    2
   173    15    12    1
   174    50    51    1
   175    50    53    1
   176    12    13    1
   177    23    22    1
   178    23    24    2
   179    51    52    2
   180    22    21    1
   181    53    54    1
   182    13    14    2
   183    54    55   ar
   184    54    56   ar
