@<TRIPOS>MOLECULE
tmp/1ybuC00.pdb
 98 92 0 0 0
SMALL
GASTEIGER

@<TRIPOS>ATOM
      1  N         34.3900   67.4640   47.4760 N.3    10  PHE10      -0.1241
      2  CA        34.0540   66.0500   47.5570 C.3    10  PHE10       0.1605
      3  C         33.8250   65.4990   46.1460 C.2    10  PHE10       0.2264
      4  O         33.0190   66.0520   45.3910 O.2    10  PHE10      -0.2867
      5  CB        32.7660   65.8390   48.3660 C.3    10  PHE10       0.0534
      6  CG        32.9440   65.9710   49.8440 C.ar   10  PHE10      -0.0203
      7  CD1       32.9380   67.2140   50.4580 C.ar   10  PHE10      -0.0042
      8  CD2       33.1270   64.8410   50.6320 C.ar   10  PHE10      -0.0042
      9  CE1       33.1140   67.3290   51.8370 C.ar   10  PHE10      -0.0003
     10  CE2       33.3040   64.9490   52.0080 C.ar   10  PHE10      -0.0003
     11  CZ        33.2960   66.1950   52.6090 C.ar   10  PHE10      -0.0000
     12  N         42.3370   65.3660   52.1960 N.3    51  VAL51      -0.1245
     13  CA        41.9230   64.9560   53.5380 C.3    51  VAL51       0.1561
     14  C         41.2900   63.6840   53.1780 C.2    51  VAL51       0.2260
     15  O         40.2060   63.3090   53.6210 O.2    51  VAL51      -0.2867
     16  CB        40.8850   65.9960   54.0370 C.3    51  VAL51       0.0252
     17  CG1       41.1850   67.3610   53.3930 C.3    51  VAL51       0.0019
     18  CG2       39.4810   65.5720   53.7140 C.3    51  VAL51       0.0019
     19  N         40.3080   59.8420   51.4640 N.3    53  THR53      -0.1203
     20  CA        39.2160   59.2070   50.7300 C.3    53  THR53       0.1994
     21  C         37.7480   59.3240   51.1410 C.2    53  THR53       0.2617
     22  O         37.4250   59.3430   52.3370 O.2    53  THR53      -0.2717
     23  CB        39.4900   57.7110   50.4380 C.3    53  THR53       0.1784
     24  OG1       38.6560   56.9090   51.2760 O.3    53  THR53      -0.2211
     25  CG2       40.9410   57.3800   50.6970 C.3    53  THR53       0.0376
     26  N         36.8860   59.4310   50.1130 N.am   54  ALA54      -0.1979
     27  CA        35.4150   59.5140   50.2040 C.3    54  ALA54       0.1597
     28  C         34.9630   58.2170   49.5270 C.2    54  ALA54       0.2287
     29  O         34.0330   58.1810   48.6860 O.2    54  ALA54      -0.2864
     30  CB        34.9020   60.7220   49.4060 C.3    54  ALA54       0.0319
     31  N         38.3170   63.8690   49.0680 N.3    59  VAL59      -0.1245
     32  CA        37.8860   64.9990   49.8550 C.3    59  VAL59       0.1561
     33  C         39.1570   65.8290   49.9100 C.2    59  VAL59       0.2260
     34  O         40.2450   65.2970   50.1310 O.2    59  VAL59      -0.2867
     35  CB        37.4540   64.5960   51.2790 C.3    59  VAL59       0.0252
     36  CG1       37.0160   65.8320   52.0450 C.3    59  VAL59       0.0019
     37  CG2       36.3040   63.6070   51.2180 C.3    59  VAL59       0.0019
     38  N         43.4630   65.8600   58.6620 N.3   102  ASP102     -0.1225
     39  CA        42.0230   65.6380   58.6380 C.3   102  ASP102      0.1805
     40  C         41.2690   66.8560   59.1670 C.2   102  ASP102      0.2597
     41  O         41.7900   67.6570   59.9470 O.2   102  ASP102     -0.2718
     42  CB        41.6560   64.3940   59.4480 C.3   102  ASP102      0.1424
     43  CG        40.2770   63.8540   59.0950 C.2   102  ASP102      0.3668
     44  OD1       39.2840   64.5870   59.2860 O.co2 102  ASP102     -0.2456
     45  OD2       40.1840   62.6960   58.6250 O.co2 102  ASP102     -0.2456
     46  N         40.0260   66.9770   58.7280 N.am  103  VAL103     -0.1980
     47  CA        39.1640   68.0880   59.0810 C.3   103  VAL103      0.1595
     48  C         37.8180   67.5510   59.5460 C.2   103  VAL103      0.2287
     49  O         37.4530   66.4190   59.2170 O.2   103  VAL103     -0.2864
     50  CB        38.9900   69.0130   57.8420 C.3   103  VAL103      0.0276
     51  CG1       37.6310   69.6530   57.8230 C.3   103  VAL103      0.0022
     52  CG2       40.0510   70.0730   57.8610 C.3   103  VAL103      0.0022
     53  N         31.8710   69.9450   56.7630 N.3   108  VAL108     -0.1231
     54  CA        32.3010   68.7470   56.0410 C.3   108  VAL108      0.1692
     55  C         31.0680   67.9310   55.6640 C.2   108  VAL108      0.2592
     56  O         30.9570   67.4450   54.5450 O.2   108  VAL108     -0.2718
     57  CB        33.2570   67.9080   56.9010 C.3   108  VAL108      0.0266
     58  CG1       33.5970   66.5910   56.2000 C.3   108  VAL108      0.0020
     59  CG2       34.5350   68.7050   57.1360 C.3   108  VAL108      0.0020
     60  N         30.1170   67.8240   56.5780 N.am  109  HIS109     -0.1976
     61  CA        28.9140   67.0760   56.2940 C.3   109  HIS109      0.1656
     62  C         28.0680   67.7140   55.2120 C.2   109  HIS109      0.2291
     63  O         27.3450   67.0280   54.4820 O.2   109  HIS109     -0.2864
     64  CB        28.0850   66.8890   57.5610 C.3   109  HIS109      0.0771
     65  CG        28.7400   65.9930   58.5680 C.ar  109  HIS109      0.0820
     66  ND1       28.0480   65.3890   59.5960 N.ar  109  HIS109     -0.2267
     67  CD2       30.0360   65.6270   58.7210 C.ar  109  HIS109      0.1154
     68  CE1       28.8900   64.6960   60.3410 C.ar  109  HIS109      0.1986
     69  NE2       30.1020   64.8240   59.8300 N.ar  109  HIS109     -0.2212
     70  N         29.9690   66.8670   51.7370 N.3   112  ALA112     -0.1231
     71  CA        29.7440   65.4220   51.5270 C.3   112  ALA112      0.1694
     72  C         28.3480   65.1850   51.0310 C.2   112  ALA112      0.2591
     73  O         28.0150   64.1450   50.4540 O.2   112  ALA112     -0.2718
     74  CB        29.9360   64.6520   52.8750 C.3   112  ALA112      0.0304
     75  N         27.5340   66.2020   51.2370 N.am  113  ARG113     -0.1980
     76  CA        26.1370   66.1410   50.8720 C.3   113  ARG113      0.1597
     77  C         25.7600   66.9830   49.6870 C.2   113  ARG113      0.2287
     78  O         24.6700   66.8090   49.1580 O.2   113  ARG113     -0.2864
     79  CB        25.3130   66.5420   52.0510 C.3   113  ARG113      0.0334
     80  CG        23.8930   66.1600   51.9110 C.3   113  ARG113      0.0492
     81  CD        23.3900   65.7700   53.2620 C.3   113  ARG113      0.2205
     82  NE        24.3950   65.0000   53.9900 N.pl3 113  ARG113     -0.0865
     83  CZ        24.1470   64.3250   55.1080 C.cat 113  ARG113      0.5346
     84  NH1       22.9330   64.3300   55.6200 N.pl3 113  ARG113      0.1354
     85  NH2       25.1060   63.6380   55.7050 N.pl3 113  ARG113      0.1354
     86  N         19.7070   66.5950   54.1560 N.3   149  LYS149     -0.1231
     87  CA        19.3880   65.7730   55.3150 C.3   149  LYS149      0.1693
     88  C         20.3180   65.9400   56.5200 C.2   149  LYS149      0.2592
     89  O         21.5340   66.0990   56.3680 O.2   149  LYS149     -0.2718
     90  CB        19.2980   64.2980   54.8850 C.3   149  LYS149      0.0285
     91  CG        20.5000   63.4260   55.2380 C.3   149  LYS149      0.0035
     92  CD        20.4380   62.9140   56.6780 C.3   149  LYS149      0.0206
     93  CE        19.0660   62.3330   56.9960 C.3   149  LYS149      0.1093
     94  NZ        18.9950   61.8120   58.3900 N.3   149  LYS149     -0.1314
     95  N         19.6920   65.9070   57.7030 N.am  150  GLY150     -0.1957
     96  CA        20.3560   66.0310   58.9930 C.3   150  GLY150      0.1869
     97  C         20.8700   67.4220   59.2480 C.2   150  GLY150      0.2309
     98  O         21.4810   67.7180   60.2850 O.2   150  GLY150     -0.2863
@<TRIPOS>BOND
     1     4     3    2
     2     3     2    1
     3     1     2    1
     4     2     5    1
     5     5     6    1
     6    29    28    2
     7    31    32    1
     8    78    77    2
     9    30    27    1
    10    28    27    1
    11    77    76    1
    12     6     7   ar
    13     6     8   ar
    14    32    33    1
    15    32    35    1
    16    33    34    2
    17    26    27    1
    18    26    21   am
    19    23    25    1
    20    23    20    1
    21    23    24    1
    22    73    72    2
    23     7     9   ar
    24     8    10   ar
    25    20    21    1
    26    20    19    1
    27    76    75    1
    28    76    79    1
    29    72    75   am
    30    72    71    1
    31    21    22    2
    32    37    35    1
    33    35    36    1
    34    71    70    1
    35    71    74    1
    36     9    11   ar
    37    80    79    1
    38    80    81    1
    39    10    11   ar
    40    12    13    1
    41    14    13    1
    42    14    15    2
    43    81    82    1
    44    17    16    1
    45    13    16    1
    46    18    16    1
    47    82    83    2
    48    86    87    1
    49    63    62    2
    50    56    55    2
    51    90    91    1
    52    90    87    1
    53    83    84    1
    54    83    85    1
    55    62    61    1
    56    91    92    1
    57    87    88    1
    58    55    54    1
    59    55    60   am
    60    54    53    1
    61    54    57    1
    62    58    57    1
    63    61    60    1
    64    61    64    1
    65    89    88    2
    66    88    95   am
    67    92    93    1
    68    57    59    1
    69    93    94    1
    70    64    65    1
    71    95    96    1
    72    51    50    1
    73    50    52    1
    74    50    47    1
    75    65    67   ar
    76    65    66   ar
    77    45    43   ar
    78    39    38    1
    79    39    40    1
    80    39    42    1
    81    67    69   ar
    82    46    47    1
    83    46    40   am
    84    96    97    1
    85    47    48    1
    86    43    44   ar
    87    43    42    1
    88    40    41    2
    89    49    48    2
    90    97    98    2
    91    66    68   ar
    92    69    68   ar
