@<TRIPOS>MOLECULE
tmp/1ybuD00.pdb
 77 74 0 0 0
SMALL
GASTEIGER

@<TRIPOS>ATOM
      1  N         29.7140   53.0280   61.0390 N.3    12  ASP12      -0.1225
      2  CA        29.2060   54.3490   60.8080 C.3    12  ASP12       0.1805
      3  C         28.3840   54.8850   61.9720 C.2    12  ASP12       0.2598
      4  O         27.5200   54.2050   62.5110 O.2    12  ASP12      -0.2718
      5  CB        28.3830   54.3380   59.5160 C.3    12  ASP12       0.1424
      6  CG        27.9760   55.7300   59.0770 C.2    12  ASP12       0.3668
      7  OD1       26.7650   56.0250   59.1300 O.co2  12  ASP12      -0.2456
      8  OD2       28.8730   56.5290   58.7030 O.co2  12  ASP12      -0.2456
      9  N         28.6640   56.1310   62.3450 N.am   13  ILE13      -0.1966
     10  CA        27.9470   56.7690   63.4360 C.3    13  ILE13       0.1727
     11  C         26.5260   57.0910   63.0380 C.2    13  ILE13       0.2616
     12  O         26.2670   57.6090   61.9680 O.2    13  ILE13      -0.2715
     13  CB        28.6660   58.0360   63.8860 C.3    13  ILE13       0.0290
     14  CG1       30.0500   57.6660   64.4020 C.3    13  ILE13       0.0022
     15  CG2       27.8420   58.7580   64.9570 C.3    13  ILE13       0.0023
     16  CD1       30.8840   58.8550   64.8350 C.3    13  ILE13       0.0001
     17  N         25.5940   56.7910   63.9160 N.am   14  VAL14      -0.1963
     18  CA        24.1990   57.0330   63.6430 C.3    14  VAL14       0.1727
     19  C         23.7670   58.4970   63.9150 C.2    14  VAL14       0.2617
     20  O         24.0300   59.0420   64.9790 O.2    14  VAL14      -0.2715
     21  CB        23.3620   56.0010   64.4730 C.3    14  VAL14       0.0290
     22  CG1       21.9160   56.3660   64.4640 C.3    14  VAL14       0.0023
     23  CG2       23.5640   54.5800   63.8670 C.3    14  VAL14       0.0023
     24  N         23.1390   59.1250   62.9180 N.am   15  GLY15      -0.1940
     25  CA        22.7000   60.5130   63.0100 C.3    15  GLY15       0.2014
     26  C         23.9050   61.3670   63.3390 C.2    15  GLY15       0.2640
     27  O         23.8530   62.2400   64.2220 O.2    15  GLY15      -0.2714
     28  N         25.0040   61.0420   62.6590 N.am   16  SER16      -0.1935
     29  CA        26.2760   61.7100   62.8550 C.3    16  SER16       0.2055
     30  C         26.0930   63.1410   62.3960 C.2    16  SER16       0.2644
     31  O         26.6900   64.0750   62.9440 O.2    16  SER16      -0.2714
     32  CB        27.3700   61.0550   62.0100 C.3    16  SER16       0.2130
     33  OG        27.1080   61.2090   60.6230 O.3    16  SER16      -0.2179
     34  N         25.2670   63.3370   61.3850 N.am   17  THR17      -0.1936
     35  CA        25.0650   64.6790   60.9260 C.3    17  THR17       0.2028
     36  C         24.2090   65.4960   61.9340 C.2    17  THR17       0.2642
     37  O         24.6340   66.5900   62.3310 O.2    17  THR17      -0.2714
     38  CB        24.4930   64.7090   59.4820 C.3    17  THR17       0.1808
     39  OG1       25.5850   64.5890   58.5520 O.3    17  THR17      -0.2208
     40  CG2       23.7500   65.9980   59.2330 C.3    17  THR17       0.0379
     41  N         23.0510   64.9870   62.3780 N.am   18  GLN18      -0.1976
     42  CA        22.2010   65.6790   63.3780 C.3    18  GLN18       0.1601
     43  C         22.9670   65.8770   64.6960 C.2    18  GLN18       0.2287
     44  O         22.7060   66.8060   65.4710 O.2    18  GLN18      -0.2864
     45  CB        20.9370   64.8650   63.7030 C.3    18  GLN18       0.0394
     46  CG        19.9810   64.6340   62.5490 C.3    18  GLN18       0.0908
     47  CD        20.4350   63.6190   61.4620 C.2    18  GLN18       0.2608
     48  OE1       19.6010   63.1060   60.7390 O.2    18  GLN18      -0.2717
     49  NE2       21.7450   63.3640   61.3560 N.am   18  GLN18      -0.0878
     50  N         37.0560   55.6880   55.5910 N.3    54  ALA54      -0.1231
     51  CA        36.0800   56.6580   55.0770 C.3    54  ALA54       0.1694
     52  C         34.9860   57.3630   55.8960 C.2    54  ALA54       0.2593
     53  O         34.0220   56.7260   56.3350 O.2    54  ALA54      -0.2718
     54  CB        35.4060   55.9760   53.8620 C.3    54  ALA54       0.0304
     55  N         35.1180   58.6820   56.0450 N.am   55  GLY55      -0.1942
     56  CA        34.1250   59.4440   56.7730 C.3    55  GLY55       0.2014
     57  C         34.0130   59.1430   58.2480 C.2    55  GLY55       0.2638
     58  O         34.9760   58.7040   58.8710 O.2    55  GLY55      -0.2714
     59  N         32.8260   59.3720   58.8070 N.am   56  ASP56      -0.1971
     60  CA        32.5700   59.1300   60.2210 C.3    56  ASP56       0.1709
     61  C         32.3540   57.6440   60.4810 C.2    56  ASP56       0.2293
     62  O         31.3500   57.2290   61.0580 O.2    56  ASP56      -0.2864
     63  CB        31.3500   59.9370   60.6560 C.3    56  ASP56       0.1436
     64  CG        30.1310   59.6570   59.7930 C.2    56  ASP56       0.3671
     65  OD1       30.2150   59.8280   58.5590 O.co2  56  ASP56      -0.2456
     66  OD2       29.0840   59.2600   60.3480 O.co2  56  ASP56      -0.2456
     67  N         26.4910   52.0110   63.6680 N.3    87  ARG87      -0.1245
     68  CA        25.7680   51.0060   62.8940 C.3    87  ARG87       0.1563
     69  C         26.9020   50.2460   62.2070 C.2    87  ARG87       0.2260
     70  O         27.8690   50.8570   61.7470 O.2    87  ARG87      -0.2867
     71  CB        24.8310   51.6400   61.8780 C.3    87  ARG87       0.0307
     72  CG        25.5020   52.2500   60.6930 C.3    87  ARG87       0.0489
     73  CD        24.4740   52.6930   59.6790 C.3    87  ARG87       0.2205
     74  NE        23.6650   53.7370   60.2550 N.pl3  87  ARG87      -0.0865
     75  CZ        22.5160   54.1630   59.8120 C.cat  87  ARG87       0.5346
     76  NH1       22.0720   53.6260   58.8060 N.pl3  87  ARG87       0.1354
     77  NH2       21.8130   55.1110   60.3610 N.pl3  87  ARG87       0.1354
@<TRIPOS>BOND
     1    54    51    1
     2    51    50    1
     3    51    52    1
     4    52    55   am
     5    52    53    2
     6    55    56    1
     7    56    57    1
     8    57    59   am
     9    57    58    2
    10    39    38    1
    11    65    64   ar
    12     8     6   ar
    13    76    75    1
    14    59    60    1
    15     6     7   ar
    16     6     5    1
    17    40    38    1
    18    38    35    1
    19     5     2    1
    20    73    74    1
    21    73    72    1
    22    64    66   ar
    23    64    63    1
    24    75    74    2
    25    75    77    1
    26    60    61    1
    27    60    63    1
    28    61    62    2
    29    33    32    1
    30    72    71    1
    31    48    47    2
    32     2     1    1
    33     2     3    1
    34    35    34    1
    35    35    36    1
    36    49    47   am
    37    34    30   am
    38    47    46    1
    39    70    69    2
    40    71    68    1
    41    36    37    2
    42    36    41   am
    43    12    11    2
    44     3     9   am
    45     3     4    2
    46    32    29    1
    47    69    68    1
    48     9    10    1
    49    41    42    1
    50    30    29    1
    51    30    31    2
    52    46    45    1
    53    28    29    1
    54    28    26   am
    55    68    67    1
    56    24    25    1
    57    24    19   am
    58    25    26    1
    59    11    10    1
    60    11    17   am
    61    26    27    2
    62    42    45    1
    63    42    43    1
    64    10    13    1
    65    18    19    1
    66    18    17    1
    67    18    21    1
    68    23    21    1
    69    13    14    1
    70    13    15    1
    71    19    20    2
    72    14    16    1
    73    22    21    1
    74    43    44    2
