@<TRIPOS>MOLECULE
tmp/1ybvA01.pdb
 130 127 0 0 0
SMALL
GASTEIGER

@<TRIPOS>ATOM
      1  N         91.4000   12.4720   17.2190 N.3   105  VAL105     -0.1245
      2  CA        90.5930   11.7600   16.2170 C.3   105  VAL105      0.1561
      3  C         91.4580   11.0020   15.2430 C.2   105  VAL105      0.2260
      4  O         92.6550   11.2200   15.1660 O.2   105  VAL105     -0.2867
      5  CB        89.6690   12.6690   15.3550 C.3   105  VAL105      0.0252
      6  CG1       88.2940   12.7500   15.9520 C.3   105  VAL105      0.0019
      7  CG2       90.2680   14.0360   15.1640 C.3   105  VAL105      0.0019
      8  N         81.8510    9.9900   22.9580 N.3   151  SER151     -0.1202
      9  CA        81.4600   10.5280   21.6610 C.3   151  SER151      0.2020
     10  C         80.2700    9.7930   21.0770 C.2   151  SER151      0.2619
     11  O         80.0060    8.6480   21.4250 O.2   151  SER151     -0.2717
     12  CB        82.6230   10.4450   20.6840 C.3   151  SER151      0.2103
     13  OG        82.2040   10.8160   19.3860 O.3   151  SER151     -0.2182
     14  N         79.5770   10.4410   20.1490 N.am  152  ILE152     -0.1965
     15  CA        78.4220    9.8360   19.4990 C.3   152  ILE152      0.1727
     16  C         78.8620    8.6000   18.7050 C.2   152  ILE152      0.2616
     17  O         78.1010    7.6380   18.5360 O.2   152  ILE152     -0.2715
     18  CB        77.7090   10.8450   18.5660 C.3   152  ILE152      0.0290
     19  CG1       76.4280   10.2290   18.0130 C.3   152  ILE152      0.0022
     20  CG2       78.6190   11.2630   17.4260 C.3   152  ILE152      0.0023
     21  CD1       75.6090   11.1710   17.1700 C.3   152  ILE152      0.0001
     22  N         80.1220    8.6130   18.2700 N.am  153  THR153     -0.1951
     23  CA        80.6990    7.5250   17.5040 C.3   153  THR153      0.1897
     24  C         80.8060    6.2290   18.2990 C.2   153  THR153      0.2313
     25  O         81.0690    5.1770   17.7270 O.2   153  THR153     -0.2863
     26  CB        82.0760    7.9030   16.9810 C.3   153  THR153      0.1794
     27  OG1       82.9120    8.2550   18.0800 O.3   153  THR153     -0.2208
     28  CG2       81.9750    9.0820   16.0510 C.3   153  THR153      0.0378
     29  N         88.9670    5.1950   16.3240 N.3   165  TYR165     -0.1241
     30  CA        88.4660    6.2780   17.1540 C.3   165  TYR165      0.1605
     31  C         87.1730    5.8620   17.8540 C.2   165  TYR165      0.2264
     32  O         87.0240    6.0540   19.0610 O.2   165  TYR165     -0.2867
     33  CB        88.2390    7.5290   16.3190 C.3   165  TYR165      0.0534
     34  CG        87.6680    8.6860   17.1020 C.ar  165  TYR165     -0.0201
     35  CD1       88.4480    9.3910   18.0120 C.ar  165  TYR165     -0.0009
     36  CD2       86.3490    9.0830   16.9230 C.ar  165  TYR165     -0.0009
     37  CE1       87.9310   10.4580   18.7190 C.ar  165  TYR165      0.0417
     38  CE2       85.8250   10.1450   17.6220 C.ar  165  TYR165      0.0417
     39  CZ        86.6180   10.8270   18.5170 C.ar  165  TYR165      0.1957
     40  OH        86.0810   11.8790   19.2100 O.3   165  TYR165     -0.2866
     41  N         79.1770   13.7920   23.2940 N.3   195  PRO195     -0.2102
     42  CA        78.8520   14.8500   22.3420 C.3   195  PRO195      0.1504
     43  C         78.6540   14.2800   20.9500 C.2   195  PRO195      0.2576
     44  O         78.9850   13.1320   20.6900 O.2   195  PRO195     -0.2718
     45  CB        80.0980   15.7290   22.3860 C.3   195  PRO195      0.0282
     46  CG        80.5880   15.5450   23.7640 C.3   195  PRO195      0.0208
     47  CD        80.4740   14.0630   23.9300 C.3   195  PRO195      0.0893
     48  N         78.1770   15.1060   20.0320 N.am  196  GLY196     -0.1943
     49  CA        77.9680   14.6240   18.6910 C.3   196  GLY196      0.2014
     50  C         78.2670   15.6200   17.5970 C.2   196  GLY196      0.2639
     51  O         77.4200   15.8350   16.7230 O.2   196  GLY196     -0.2714
     52  N         79.4590   16.2050   17.5970 N.am  197  GLY197     -0.1939
     53  CA        79.7730   17.1470   16.5340 C.3   197  GLY197      0.2014
     54  C         79.6460   18.5590   17.0380 C.2   197  GLY197      0.2638
     55  O         78.5770   19.1780   16.9430 O.2   197  GLY197     -0.2714
     56  N         80.7630   19.0680   17.5470 N.am  198  ILE198     -0.1977
     57  CA        80.8470   20.3930   18.1370 C.3   198  ILE198      0.1596
     58  C         81.8740   21.2340   17.3780 C.2   198  ILE198      0.2287
     59  O         82.9550   20.7430   17.0280 O.2   198  ILE198     -0.2864
     60  CB        81.3040   20.2730   19.6100 C.3   198  ILE198      0.0276
     61  CG1       80.3970   19.3040   20.3790 C.3   198  ILE198      0.0022
     62  CG2       81.3570   21.6260   20.2610 C.3   198  ILE198      0.0022
     63  CD1       78.9470   19.7360   20.5080 C.3   198  ILE198      0.0001
     64  N         88.9380   20.6190   16.1060 N.3   202  MET202     -0.1230
     65  CA        88.7260   19.2640   15.5910 C.3   202  MET202      0.1702
     66  C         87.6820   19.2890   14.4870 C.2   202  MET202      0.2592
     67  O         87.8990   18.7480   13.4010 O.2   202  MET202     -0.2718
     68  CB        88.2670   18.3140   16.7030 C.3   202  MET202      0.0401
     69  CG        88.2380   16.8460   16.2670 C.3   202  MET202      0.0596
     70  SD        87.6530   15.6960   17.5400 S.3   202  MET202     -0.1393
     71  CE        89.1270   15.5260   18.5480 C.3   202  MET202      0.0692
     72  N         86.5660   19.9520   14.7650 N.am  203  TYR203     -0.1976
     73  CA        85.4770   20.0640   13.8010 C.3   203  TYR203      0.1639
     74  C         85.9990   20.6560   12.5010 C.2   203  TYR203      0.2290
     75  O         85.7140   20.1520   11.4180 O.2   203  TYR203     -0.2864
     76  CB        84.3630   20.9340   14.3750 C.3   203  TYR203      0.0560
     77  CG        83.1820   21.1670   13.4640 C.ar  203  TYR203     -0.0198
     78  CD1       83.1580   22.2540   12.5860 C.ar  203  TYR203     -0.0009
     79  CD2       82.0530   20.3530   13.5350 C.ar  203  TYR203     -0.0009
     80  CE1       82.0240   22.5350   11.8150 C.ar  203  TYR203      0.0417
     81  CE2       80.9160   20.6210   12.7690 C.ar  203  TYR203      0.0417
     82  CZ        80.9080   21.7140   11.9140 C.ar  203  TYR203      0.1957
     83  OH        79.7660   22.0080   11.2030 O.3   203  TYR203     -0.2866
     84  N         88.3700   17.7640   10.8190 N.3   206  VAL206     -0.1231
     85  CA        87.8030   16.5420   10.2630 C.3   206  VAL206      0.1692
     86  C         86.3110   16.3930    9.9980 C.2   206  VAL206      0.2592
     87  O         85.8660   15.2990    9.6650 O.2   206  VAL206     -0.2718
     88  CB        88.2440   15.3570   11.1240 C.3   206  VAL206      0.0266
     89  CG1       89.7640   15.3090   11.1950 C.3   206  VAL206      0.0020
     90  CG2       87.6600   15.4940   12.5230 C.3   206  VAL206      0.0020
     91  N         85.5310   17.4590   10.1020 N.am  207  CYS207     -0.1970
     92  CA        84.0950   17.3270    9.8650 C.3   207  CYS207      0.1712
     93  C         83.7610   16.6950    8.5080 C.2   207  CYS207      0.2296
     94  O         82.9110   15.8020    8.4230 O.2   207  CYS207     -0.2864
     95  CB        83.3850   18.6800   10.0010 C.3   207  CYS207      0.0983
     96  SG        81.5710   18.5860    9.8490 S.3   207  CYS207     -0.0798
     97  N         83.0440   13.0770    7.8420 N.3   210  TYR210     -0.1241
     98  CA        81.7690   12.5020    8.2620 C.3   210  TYR210      0.1605
     99  C         80.7000   12.7130    7.2050 C.2   210  TYR210      0.2264
    100  O         79.6770   12.0250    7.1960 O.2   210  TYR210     -0.2867
    101  CB        81.2870   13.1460    9.5580 C.3   210  TYR210      0.0534
    102  CG        82.0980   12.7750   10.7620 C.ar  210  TYR210     -0.0201
    103  CD1       83.1980   13.5280   11.1410 C.ar  210  TYR210     -0.0009
    104  CD2       81.7460   11.6820   11.5400 C.ar  210  TYR210     -0.0009
    105  CE1       83.9260   13.2020   12.2660 C.ar  210  TYR210      0.0417
    106  CE2       82.4630   11.3470   12.6690 C.ar  210  TYR210      0.0417
    107  CZ        83.5530   12.1080   13.0310 C.ar  210  TYR210      0.1957
    108  OH        84.2610   11.7780   14.1700 O.3   210  TYR210     -0.2866
    109  N         72.2660   16.4750   10.9540 N.3   230  TRP230     -0.1241
    110  CA        72.4650   15.9250   12.2840 C.3   230  TRP230      0.1605
    111  C         71.5860   16.3620   13.4370 C.2   230  TRP230      0.2264
    112  O         71.8390   15.9570   14.5700 O.2   230  TRP230     -0.2867
    113  CB        73.9260   16.0520   12.6770 C.3   230  TRP230      0.0550
    114  CG        74.8270   15.3290   11.7660 C.ar  230  TRP230      0.0003
    115  CD1       74.5710   14.1590   11.1180 C.ar  230  TRP230      0.0946
    116  CD2       76.1570   15.7070   11.4090 C.ar  230  TRP230      0.0152
    117  NE1       75.6640   13.7800   10.3840 N.ar  230  TRP230     -0.2442
    118  CE2       76.6520   14.7160   10.5440 C.ar  230  TRP230      0.0810
    119  CE3       76.9800   16.7870   11.7430 C.ar  230  TRP230      0.0012
    120  CZ2       77.9330   14.7730   10.0030 C.ar  230  TRP230      0.0191
    121  CZ3       78.2630   16.8410   11.2030 C.ar  230  TRP230      0.0001
    122  CH2       78.7210   15.8400   10.3440 C.ar  230  TRP230      0.0015
    123  N         73.7670    9.0870   13.8020 N.3   270  MET270     -0.1245
    124  CA        74.9560    8.8080   13.0050 C.3   270  MET270      0.1570
    125  C         75.3050    7.3240   12.9330 C.2   270  MET270      0.2261
    126  O         76.3560    6.9970   12.3520 O.2   270  MET270     -0.2867
    127  CB        76.1440    9.6070   13.5440 C.3   270  MET270      0.0387
    128  CG        75.9450   11.1130   13.4300 C.3   270  MET270      0.0595
    129  SD        77.4360   12.0730   13.6930 S.3   270  MET270     -0.1393
    130  CE        76.6890   13.5710   14.3980 C.3   270  MET270      0.0692
@<TRIPOS>BOND
     1   100    99    2
     2    99    98    1
     3    97    98    1
     4    98   101    1
     5    94    93    2
     6    93    92    1
     7   101   102    1
     8    87    86    2
     9    96    95    1
    10    92    95    1
    11    92    91    1
    12    86    91   am
    13    86    85    1
    14   120   122   ar
    15   120   118   ar
    16    85    84    1
    17    85    88    1
    18   122   121   ar
    19   117   118   ar
    20   117   115   ar
    21   118   116   ar
    22   102   103   ar
    23   102   104   ar
    24   109   110    1
    25   115   114   ar
    26    88    89    1
    27    88    90    1
    28   103   105   ar
    29    83    82    1
    30   121   119   ar
    31   116   119   ar
    32   116   114   ar
    33    75    74    2
    34   104   106   ar
    35   114   113    1
    36    80    82   ar
    37    80    78   ar
    38    82    81   ar
    39   105   107   ar
    40   110   113    1
    41   110   111    1
    42   126   125    2
    43    74    73    1
    44    78    77   ar
    45   106   107   ar
    46    81    79   ar
    47   125   124    1
    48   124   127    1
    49   124   123    1
    50   107   108    1
    51    67    66    2
    52   128   127    1
    53   128   129    1
    54   111   112    2
    55    77    79   ar
    56    77    76    1
    57   129   130    1
    58    73    76    1
    59    73    72    1
    60    66    72   am
    61    66    65    1
    62     7     5    1
    63     4     3    2
    64     3     2    1
    65     5     6    1
    66     5     2    1
    67    65    64    1
    68    65    68    1
    69    28    26    1
    70     2     1    1
    71    69    68    1
    72    69    70    1
    73    33    34    1
    74    33    30    1
    75    29    30    1
    76    53    54    1
    77    53    52    1
    78    51    50    2
    79    36    34   ar
    80    36    38   ar
    81    55    54    2
    82    26    23    1
    83    26    27    1
    84    59    58    2
    85    54    56   am
    86    34    35   ar
    87    30    31    1
    88    21    19    1
    89    58    57    1
    90    20    18    1
    91    23    22    1
    92    23    24    1
    93    70    71    1
    94    56    57    1
    95    50    52   am
    96    50    49    1
    97    38    39   ar
    98    25    24    2
    99    31    32    2
   100    35    37   ar
   101    19    18    1
   102    57    60    1
   103    22    16   am
   104    39    37   ar
   105    39    40    1
   106    17    16    2
   107    18    15    1
   108    49    48    1
   109    16    15    1
   110    13    12    1
   111    15    14    1
   112    60    62    1
   113    60    61    1
   114    48    43   am
   115    14    10   am
   116    61    63    1
   117    12     9    1
   118    44    43    2
   119    43    42    1
   120    10    11    2
   121    10     9    1
   122     9     8    1
   123    42    45    1
   124    42    41    1
   125    45    46    1
   126    41    47    1
   127    46    47    1
