@<TRIPOS>MOLECULE
tmp/1yc1A00.pdb
 164 150 0 0 0
SMALL
GASTEIGER

@<TRIPOS>ATOM
      1  N         -2.1120   34.2220    5.1530 N.3    34  LEU34      -0.1245
      2  CA        -2.4580   33.3940    3.9950 C.3    34  LEU34       0.1561
      3  C         -3.7250   33.8980    3.3180 C.2    34  LEU34       0.2260
      4  O         -3.7920   33.9380    2.0840 O.2    34  LEU34      -0.2867
      5  CB        -2.6580   31.9320    4.4100 C.3    34  LEU34       0.0270
      6  CG        -1.3780   31.3530    5.0280 C.3    34  LEU34       0.0019
      7  CD1       -1.6190   29.9320    5.4930 C.3    34  LEU34       0.0001
      8  CD2       -0.2660   31.3350    3.9940 C.3    34  LEU34       0.0001
      9  N         -2.7660   36.7940    1.1720 N.3    37  ASN37      -0.1225
     10  CA        -2.1200   36.3900   -0.0770 C.3    37  ASN37       0.1785
     11  C         -3.2110   35.8940   -1.0660 C.2    37  ASN37       0.2597
     12  O         -3.1920   36.2360   -2.2270 O.2    37  ASN37      -0.2718
     13  CB        -1.1320   35.2600    0.1610 C.3    37  ASN37       0.1169
     14  CG         0.1740   35.7660    0.7540 C.2    37  ASN37       0.2627
     15  OD1        0.2790   36.9740    1.1180 O.2    37  ASN37      -0.2716
     16  ND2        1.1730   34.8540    0.8780 N.am   37  ASN37      -0.0877
     17  N         -4.1950   35.1600   -0.5520 N.am   38  SER38      -0.1952
     18  CA        -5.2690   34.6420   -1.4350 C.3    38  SER38       0.1924
     19  C         -6.0330   35.8170   -2.0310 C.2    38  SER38       0.2314
     20  O         -6.3360   35.8620   -3.2360 O.2    38  SER38      -0.2863
     21  CB        -6.2170   33.7710   -0.6360 C.3    38  SER38       0.2116
     22  OG        -5.6150   32.5110   -0.3030 O.3    38  SER38      -0.2180
     23  N         -4.9190   38.7970   -2.5080 N.3    40  ASP40      -0.1225
     24  CA        -4.1090   39.4920   -3.5260 C.3    40  ASP40       0.1805
     25  C         -4.1170   38.7380   -4.8650 C.2    40  ASP40       0.2597
     26  O         -4.1950   39.3600   -5.9330 O.2    40  ASP40      -0.2718
     27  CB        -2.6670   39.6470   -3.0370 C.3    40  ASP40       0.1424
     28  CG        -2.5680   40.6250   -1.8640 C.2    40  ASP40       0.3668
     29  OD1       -3.5680   41.3060   -1.5760 O.co2  40  ASP40      -0.2456
     30  OD2       -1.4650   40.6980   -1.2390 O.co2  40  ASP40      -0.2456
     31  N         -4.0590   37.4170   -4.8010 N.am   41  ALA41      -0.1979
     32  CA        -4.0800   36.5780   -6.0090 C.3    41  ALA41       0.1597
     33  C         -5.4530   36.6310   -6.6750 C.2    41  ALA41       0.2287
     34  O         -5.5180   36.5780   -7.9090 O.2    41  ALA41      -0.2864
     35  CB        -3.7610   35.1310   -5.6750 C.3    41  ALA41       0.0319
     36  N         -5.6310   39.7260   -8.5480 N.3    44  LYS44      -0.1245
     37  CA        -4.8630   39.6470   -9.7900 C.3    44  LYS44       0.1561
     38  C         -5.6720   39.0590  -10.9330 C.2    44  LYS44       0.2260
     39  O         -5.8130   39.6660  -12.0200 O.2    44  LYS44      -0.2867
     40  CB        -3.5860   38.8310   -9.6030 C.3    44  LYS44       0.0271
     41  CG        -2.4450   39.6500   -8.9490 C.3    44  LYS44       0.0035
     42  CD        -1.1340   38.8390   -9.0300 C.3    44  LYS44       0.0206
     43  CE         0.1340   39.6870   -8.6230 C.3    44  LYS44       0.1093
     44  NZ         1.3770   38.9200   -8.9290 N.3    44  LYS44      -0.1314
     45  N         -6.1160   25.8840    2.9640 N.3    77  ILE77      -0.1245
     46  CA        -6.6840   27.2010    2.5590 C.3    77  ILE77       0.1561
     47  C         -6.6390   27.1710    1.0490 C.2    77  ILE77       0.2260
     48  O         -5.5750   27.0950    0.4260 O.2    77  ILE77      -0.2867
     49  CB        -5.8300   28.3680    3.0500 C.3    77  ILE77       0.0252
     50  CG1       -5.7630   28.4430    4.5770 C.3    77  ILE77       0.0019
     51  CG2       -6.4490   29.6610    2.5480 C.3    77  ILE77       0.0019
     52  CD1       -4.7230   27.5280    5.1830 C.3    77  ILE77       0.0001
     53  N         -7.7980   28.9450   -2.6510 N.3    79  ASP79      -0.1239
     54  CA        -8.3860   30.1300   -3.2950 C.3    79  ASP79       0.1674
     55  C         -8.4140   29.8950   -4.7950 C.2    79  ASP79       0.2266
     56  O         -7.7210   29.0000   -5.3330 O.2    79  ASP79      -0.2867
     57  CB        -7.5800   31.4360   -2.9790 C.3    79  ASP79       0.1410
     58  CG        -6.1980   31.4120   -3.5500 C.2    79  ASP79       0.3668
     59  OD1       -6.0460   31.4400   -4.7810 O.co2  79  ASP79      -0.2456
     60  OD2       -5.2070   31.4520   -2.7480 O.co2  79  ASP79      -0.2456
     61  N         -5.2510   33.9060   -9.1390 N.3    82  ILE82      -0.1231
     62  CA        -4.4800   33.7490  -10.3570 C.3    82  ILE82       0.1692
     63  C         -3.5340   32.5570  -10.4140 C.2    82  ILE82       0.2593
     64  O         -3.1660   32.0610  -11.5190 O.2    82  ILE82      -0.2718
     65  CB        -3.7570   35.0950  -10.6820 C.3    82  ILE82       0.0266
     66  CG1       -3.3840   35.1240  -12.1690 C.3    82  ILE82       0.0019
     67  CG2       -2.4950   35.2750   -9.8110 C.3    82  ILE82       0.0020
     68  CD1       -2.6900   36.4260  -12.5660 C.3    82  ILE82       0.0001
     69  N         -3.1690   32.0080   -9.2440 N.am   83  GLY83      -0.1942
     70  CA        -2.2640   30.8850   -9.2510 C.3    83  GLY83       0.2014
     71  C         -0.8460   31.3580   -9.5650 C.2    83  GLY83       0.2638
     72  O         -0.5950   32.5300   -9.6430 O.2    83  GLY83      -0.2714
     73  N          0.0680   30.4210   -9.6730 N.am   84  MET84      -0.1976
     74  CA         1.4460   30.6820  -10.0030 C.3    84  MET84       0.1605
     75  C          2.0010   29.6920  -11.0250 C.2    84  MET84       0.2287
     76  O          1.7570   28.5150  -10.9640 O.2    84  MET84      -0.2864
     77  CB         2.3190   30.5940   -8.7410 C.3    84  MET84       0.0413
     78  CG         1.9760   31.6890   -7.7430 C.3    84  MET84       0.0598
     79  SD         2.9700   31.4620   -6.2230 S.3    84  MET84      -0.1393
     80  CE         1.8360   30.3640   -5.3080 C.3    84  MET84       0.0692
     81  N          7.2070   31.2220  -11.1140 N.3    88  ASP88      -0.1239
     82  CA         6.8160   32.1370  -10.0540 C.3    88  ASP88       0.1674
     83  C          6.6450   31.4170   -8.7360 C.2    88  ASP88       0.2266
     84  O          6.8450   32.0200   -7.6580 O.2    88  ASP88      -0.2867
     85  CB         5.5080   32.8480  -10.3540 C.3    88  ASP88       0.1410
     86  CG         5.7060   34.0710  -11.2160 C.2    88  ASP88       0.3668
     87  OD1        6.8780   34.5260  -11.3920 O.co2  88  ASP88      -0.2456
     88  OD2        4.6990   34.5940  -11.6880 O.co2  88  ASP88      -0.2456
     89  N          8.6160   32.9800   -5.8490 N.3    92  ASN92      -0.1225
     90  CA         7.8840   33.5940   -4.7740 C.3    92  ASN92       0.1785
     91  C          8.0840   32.9260   -3.4230 C.2    92  ASN92       0.2597
     92  O          7.9850   33.5710   -2.3880 O.2    92  ASN92      -0.2718
     93  CB         6.3670   33.5680   -5.0500 C.3    92  ASN92       0.1169
     94  CG         5.9840   34.4860   -6.1640 C.2    92  ASN92       0.2627
     95  OD1        6.7060   35.4170   -6.4690 O.2    92  ASN92      -0.2716
     96  ND2        4.8190   34.2680   -6.7380 N.am   92  ASN92      -0.0877
     97  N          8.2970   31.6230   -3.4090 N.am   93  LEU93      -0.1980
     98  CA         8.4340   30.9630   -2.1080 C.3    93  LEU93       0.1596
     99  C          9.8830   30.5970   -1.8050 C.2    93  LEU93       0.2287
    100  O         10.2580   30.4010   -0.6380 O.2    93  LEU93      -0.2864
    101  CB         7.5620   29.6860   -2.1110 C.3    93  LEU93       0.0297
    102  CG         6.0770   29.8960   -2.4090 C.3    93  LEU93       0.0022
    103  CD1        5.3470   28.5500   -2.2180 C.3    93  LEU93       0.0001
    104  CD2        5.4860   30.9740   -1.4360 C.3    93  LEU93       0.0001
    105  N         12.5250   37.4980   -3.5590 N.3    97  ALA97      -0.1231
    106  CA        11.5710   37.9660   -4.5720 C.3    97  ALA97       0.1694
    107  C         11.3320   39.4650   -4.3830 C.2    97  ALA97       0.2591
    108  O         12.2790   40.2550   -4.3520 O.2    97  ALA97      -0.2718
    109  CB        10.2790   37.2180   -4.4120 C.3    97  ALA97       0.0304
    110  N         10.0600   39.8440   -4.2380 N.am   98  LYS98      -0.1980
    111  CA         9.7350   41.2530   -4.1560 C.3    98  LYS98       0.1596
    112  C          9.6490   41.8140   -2.7350 C.2    98  LYS98       0.2287
    113  O          9.2380   43.0140   -2.5510 O.2    98  LYS98      -0.2864
    114  CB         8.3620   41.5230   -4.8270 C.3    98  LYS98       0.0298
    115  CG         8.2950   40.9640   -6.2440 C.3    98  LYS98       0.0038
    116  CD         6.9350   41.3070   -6.8820 C.3    98  LYS98       0.0206
    117  CE         6.8410   40.6770   -8.3050 C.3    98  LYS98       0.1093
    118  NZ         6.9910   39.1780   -8.3870 N.3    98  LYS98      -0.1314
    119  N          6.1230   41.7480    3.3390 N.3   121  GLY121     -0.1225
    120  CA         5.9180   40.9570    2.1460 C.3   121  GLY121      0.1811
    121  C          6.2960   39.5010    2.2400 C.2   121  GLY121      0.2280
    122  O          6.4730   38.8150    1.2190 O.2   121  GLY121     -0.2866
    123  N          3.6340   34.7550    4.1520 N.3   124  PHE124     -0.1241
    124  CA         3.5050   33.2840    3.9430 C.3   124  PHE124      0.1605
    125  C          4.2710   32.4650    4.9870 C.2   124  PHE124      0.2264
    126  O          3.7790   31.4450    5.4600 O.2   124  PHE124     -0.2867
    127  CB         4.0860   32.9280    2.5710 C.3   124  PHE124      0.0534
    128  CG         4.2920   31.4500    2.3910 C.ar  124  PHE124     -0.0203
    129  CD1        3.1990   30.5830    2.2960 C.ar  124  PHE124     -0.0042
    130  CD2        5.6200   30.9250    2.3690 C.ar  124  PHE124     -0.0042
    131  CE1        3.4090   29.1870    2.1700 C.ar  124  PHE124     -0.0003
    132  CE2        5.8270   29.5200    2.2450 C.ar  124  PHE124     -0.0003
    133  CZ         4.7020   28.6780    2.1450 C.ar  124  PHE124     -0.0000
    134  N          2.1340   23.5800   -1.1090 N.3   136  VAL136     -0.1245
    135  CA         1.4130   24.6070   -1.8720 C.3   136  VAL136      0.1561
    136  C          1.1700   24.0280   -3.2510 C.2   136  VAL136      0.2260
    137  O          2.1020   23.7710   -3.9860 O.2   136  VAL136     -0.2867
    138  CB         2.2400   25.8930   -1.9870 C.3   136  VAL136      0.0252
    139  CG1        1.4850   26.9180   -2.8560 C.3   136  VAL136      0.0019
    140  CG2        2.4460   26.4870   -0.6080 C.3   136  VAL136      0.0019
    141  N         -1.8990   27.9790  -12.6540 N.3   140  HIS140     -0.1241
    142  CA        -1.9930   29.3000  -13.2690 C.3   140  HIS140      0.1621
    143  C         -2.4970   28.9800  -14.6760 C.2   140  HIS140      0.2264
    144  O         -2.1870   27.9230  -15.1840 O.2   140  HIS140     -0.2867
    145  CB        -0.6130   29.9360  -13.3960 C.3   140  HIS140      0.0745
    146  CG        -0.6290   31.2980  -14.0050 C.ar  140  HIS140      0.0817
    147  ND1       -0.5440   32.4520  -13.2630 N.ar  140  HIS140     -0.2268
    148  CD2       -0.6990   31.6910  -15.2960 C.ar  140  HIS140      0.1154
    149  CE1       -0.5520   33.5050  -14.0640 C.ar  140  HIS140      0.1986
    150  NE2       -0.6440   33.0640  -15.3090 N.ar  140  HIS140     -0.2212
    151  N         -4.6890   28.6330   -5.8930 N.3   170  THR170     -0.1218
    152  CA        -3.6340   28.1270   -5.0350 C.3   170  THR170      0.1862
    153  C         -4.2410   27.4900   -3.7970 C.2   170  THR170      0.2287
    154  O         -5.1970   28.0310   -3.1990 O.2   170  THR170     -0.2866
    155  CB        -2.7030   29.2950   -4.6550 C.3   170  THR170      0.1770
    156  OG1       -2.0380   29.7940   -5.8190 O.3   170  THR170     -0.2211
    157  CG2       -1.6320   28.8600   -3.6400 C.3   170  THR170      0.0375
    158  N         -3.1110   25.9160   -0.0370 N.3   172  VAL172     -0.1245
    159  CA        -1.9840   25.7690    0.8980 C.3   172  VAL172      0.1561
    160  C         -2.4140   24.7370    1.9270 C.2   172  VAL172      0.2260
    161  O         -3.4400   24.9130    2.5950 O.2   172  VAL172     -0.2867
    162  CB        -1.7080   27.0960    1.5720 C.3   172  VAL172      0.0252
    163  CG1       -0.6020   26.9350    2.5980 C.3   172  VAL172      0.0019
    164  CG2       -1.2710   28.1550    0.5150 C.3   172  VAL172      0.0019
@<TRIPOS>BOND
     1   150   148   ar
     2   150   149   ar
     3   148   146   ar
     4   144   143    2
     5   143   142    1
     6   149   147   ar
     7   146   145    1
     8   146   147   ar
     9   145   142    1
    10   142   141    1
    11    68    66    1
    12    66    65    1
    13    39    38    2
    14    88    86   ar
    15    64    63    2
    16    87    86   ar
    17    86    85    1
    18    81    82    1
    19    75    76    2
    20    75    74    1
    21    38    37    1
    22    65    62    1
    23    65    67    1
    24    63    62    1
    25    63    69   am
    26    62    61    1
    27    85    82    1
    28    82    83    1
    29    74    73    1
    30    74    77    1
    31    37    40    1
    32    37    36    1
    33    73    71   am
    34    72    71    2
    35    40    41    1
    36    71    70    1
    37    70    69    1
    38    42    41    1
    39    42    43    1
    40    44    43    1
    41    77    78    1
    42    83    84    2
    43   118   117    1
    44   117   116    1
    45    34    33    2
    46    78    79    1
    47   116   115    1
    48    96    94   am
    49    33    32    1
    50    95    94    2
    51   115   114    1
    52    79    80    1
    53    94    93    1
    54    32    35    1
    55    32    31    1
    56    26    25    2
    57   151   152    1
    58    89    90    1
    59   156   155    1
    60    56    55    2
    61    93    90    1
    62   152   155    1
    63   152   153    1
    64    25    31   am
    65    25    24    1
    66   114   111    1
    67    55    54    1
    68    59    58   ar
    69    90    91    1
    70   155   157    1
    71   106   109    1
    72   106   107    1
    73   106   105    1
    74   107   108    2
    75   107   110   am
    76   110   111    1
    77   111   112    1
    78   137   136    2
    79   153   154    2
    80    58    57    1
    81    58    60   ar
    82    24    27    1
    83    24    23    1
    84    91    97   am
    85    91    92    2
    86    97    98    1
    87    54    57    1
    88    54    53    1
    89   136   135    1
    90    20    19    2
    91    27    28    1
    92   139   138    1
    93   112   113    2
    94   102   103    1
    95   102   101    1
    96   102   104    1
    97    12    11    2
    98   101    98    1
    99    98    99    1
   100    19    18    1
   101   138   135    1
   102   138   140    1
   103   135   134    1
   104    28    29   ar
   105    28    30   ar
   106    99   100    2
   107    18    21    1
   108    18    17    1
   109    11    17   am
   110    11    10    1
   111    21    22    1
   112    10    13    1
   113    10     9    1
   114   158   159    1
   115    13    14    1
   116    48    47    2
   117   164   162    1
   118    14    16   am
   119    14    15    2
   120   159   162    1
   121   159   160    1
   122    47    46    1
   123   122   121    2
   124   162   163    1
   125   160   161    2
   126     4     3    2
   127   133   131   ar
   128   133   132   ar
   129   120   121    1
   130   120   119    1
   131   131   129   ar
   132   132   130   ar
   133   129   128   ar
   134   130   128   ar
   135   128   127    1
   136    51    49    1
   137    46    45    1
   138    46    49    1
   139   127   124    1
   140    49    50    1
   141     3     2    1
   142   124   123    1
   143   124   125    1
   144     8     6    1
   145     2     5    1
   146     2     1    1
   147     5     6    1
   148    50    52    1
   149   125   126    2
   150     6     7    1
