@<TRIPOS>MOLECULE
tmp/1yc2B02.pdb
 230 224 0 0 0
SMALL
GASTEIGER

@<TRIPOS>ATOM
      1  N         -3.6080   48.6540  -24.5560 N.3    32  ILE32      -0.1245
      2  CA        -3.2140   47.2670  -24.3530 C.3    32  ILE32       0.1561
      3  C         -2.6100   47.1320  -22.9690 C.2    32  ILE32       0.2260
      4  O         -1.4680   47.5370  -22.7370 O.2    32  ILE32      -0.2867
      5  CB        -2.1750   46.8120  -25.3870 C.3    32  ILE32       0.0252
      6  CG1       -2.6600   47.1580  -26.7930 C.3    32  ILE32       0.0019
      7  CG2       -1.9320   45.3090  -25.2480 C.3    32  ILE32       0.0019
      8  CD1       -1.6580   46.8020  -27.8790 C.3    32  ILE32       0.0001
      9  N          0.9170   42.7860  -18.2220 N.3    35  PHE35      -0.1241
     10  CA         0.6570   41.5660  -17.4660 C.3    35  PHE35       0.1605
     11  C          0.9970   41.7610  -16.0010 C.2    35  PHE35       0.2264
     12  O          0.9340   40.8090  -15.2290 O.2    35  PHE35      -0.2867
     13  CB         1.5120   40.4110  -18.0020 C.3    35  PHE35       0.0534
     14  CG         1.1360   39.9470  -19.3860 C.ar   35  PHE35      -0.0203
     15  CD1        1.8810   38.9580  -20.0170 C.ar   35  PHE35      -0.0042
     16  CD2        0.0440   40.4980  -20.0650 C.ar   35  PHE35      -0.0042
     17  CE1        1.5550   38.5220  -21.2990 C.ar   35  PHE35      -0.0003
     18  CE2       -0.2890   40.0660  -21.3490 C.ar   35  PHE35      -0.0003
     19  CZ         0.4710   39.0780  -21.9630 C.ar   35  PHE35      -0.0000
     20  N         -6.8260   42.0040  -16.1420 N.3    43  ARG43      -0.1245
     21  CA        -6.8940   41.0920  -17.2820 C.3    43  ARG43       0.1563
     22  C         -7.5860   39.7690  -16.9750 C.2    43  ARG43       0.2260
     23  O         -7.4940   39.2500  -15.8690 O.2    43  ARG43      -0.2867
     24  CB        -5.4890   40.7760  -17.8010 C.3    43  ARG43       0.0307
     25  CG        -4.9930   41.6480  -18.9280 C.3    43  ARG43       0.0489
     26  CD        -3.6510   41.1370  -19.4100 C.3    43  ARG43       0.2205
     27  NE        -3.0690   41.9490  -20.4720 N.pl3  43  ARG43      -0.0865
     28  CZ        -3.3030   41.7810  -21.7690 C.cat  43  ARG43       0.5346
     29  NH1       -4.1160   40.8200  -22.1860 N.pl3  43  ARG43       0.1354
     30  NH2       -2.7160   42.5740  -22.6520 N.pl3  43  ARG43       0.1354
     31  N         -2.1730   31.7540  -23.2250 N.3    51  ALA51      -0.1245
     32  CA        -1.2710   32.2100  -24.2770 C.3    51  ALA51       0.1562
     33  C         -0.0220   31.3590  -24.4790 C.2    51  ALA51       0.2260
     34  O          1.0510   31.8770  -24.8040 O.2    51  ALA51      -0.2867
     35  CB        -0.8810   33.6650  -24.0220 C.3    51  ALA51       0.0290
     36  N         -7.6670   32.1960  -26.2790 N.3    63  PHE63      -0.1241
     37  CA        -6.4180   32.8060  -26.6980 C.3    63  PHE63       0.1605
     38  C         -6.6580   34.1720  -27.3340 C.2    63  PHE63       0.2264
     39  O         -6.0300   35.1580  -26.9630 O.2    63  PHE63      -0.2867
     40  CB        -5.7050   31.9090  -27.7150 C.3    63  PHE63       0.0534
     41  CG        -4.5110   32.5540  -28.3340 C.ar   63  PHE63      -0.0203
     42  CD1       -3.2950   32.5930  -27.6550 C.ar   63  PHE63      -0.0042
     43  CD2       -4.6150   33.1900  -29.5660 C.ar   63  PHE63      -0.0042
     44  CE1       -2.1950   33.2680  -28.1950 C.ar   63  PHE63      -0.0003
     45  CE2       -3.5240   33.8670  -30.1160 C.ar   63  PHE63      -0.0003
     46  CZ        -2.3120   33.9070  -29.4290 C.ar   63  PHE63      -0.0000
     47  N         -8.0850   36.7420  -24.8390 N.3    66  PHE66      -0.1227
     48  CA        -7.0160   37.2750  -24.0150 C.3    66  PHE66       0.1736
     49  C         -6.1510   38.2580  -24.8000 C.2    66  PHE66       0.2596
     50  O         -5.9050   39.3820  -24.3560 O.2    66  PHE66      -0.2718
     51  CB        -6.1400   36.1320  -23.4840 C.3    66  PHE66       0.0547
     52  CG        -4.8360   36.5910  -22.8660 C.ar   66  PHE66      -0.0202
     53  CD1       -3.6970   36.7550  -23.6500 C.ar   66  PHE66      -0.0042
     54  CD2       -4.7570   36.8720  -21.5030 C.ar   66  PHE66      -0.0042
     55  CE1       -2.4920   37.1920  -23.0910 C.ar   66  PHE66      -0.0003
     56  CE2       -3.5640   37.3120  -20.9310 C.ar   66  PHE66      -0.0003
     57  CZ        -2.4270   37.4720  -21.7290 C.ar   66  PHE66      -0.0000
     58  N         -5.7000   37.8320  -25.9740 N.am   67  SER67      -0.1938
     59  CA        -4.8400   38.6570  -26.8060 C.3    67  SER67       0.2055
     60  C         -5.4180   39.9880  -27.2610 C.2    67  SER67       0.2643
     61  O         -4.6910   40.9750  -27.3560 O.2    67  SER67      -0.2714
     62  CB        -4.3920   37.8570  -28.0220 C.3    67  SER67       0.2130
     63  OG        -3.6820   36.7060  -27.6030 O.3    67  SER67      -0.2179
     64  N         -6.7170   40.0240  -27.5340 N.am   68  MET68      -0.1962
     65  CA        -7.3520   41.2520  -28.0040 C.3    68  MET68       0.1736
     66  C         -7.9730   42.1040  -26.9110 C.2    68  MET68       0.2616
     67  O         -8.6200   43.1060  -27.2070 O.2    68  MET68      -0.2715
     68  CB        -8.4360   40.9230  -29.0350 C.3    68  MET68       0.0427
     69  CG        -7.9260   40.1890  -30.2680 C.3    68  MET68       0.0599
     70  SD        -6.7480   41.1540  -31.2450 S.3    68  MET68      -0.1393
     71  CE        -5.1790   40.5020  -30.6570 C.3    68  MET68       0.0692
     72  N         -7.7850   41.7260  -25.6520 N.am   69  GLU69      -0.1963
     73  CA        -8.3830   42.4980  -24.5700 C.3    69  GLU69       0.1733
     74  C         -7.8230   43.9200  -24.4810 C.2    69  GLU69       0.2616
     75  O         -6.6150   44.1240  -24.5040 O.2    69  GLU69      -0.2715
     76  CB        -8.2170   41.7660  -23.2350 C.3    69  GLU69       0.0429
     77  CG        -8.9770   42.4250  -22.0830 C.3    69  GLU69       0.1163
     78  CD        -9.2040   41.4890  -20.8980 C.2    69  GLU69       0.3649
     79  OE1       -8.2750   40.7330  -20.5410 O.co2  69  GLU69      -0.2457
     80  OE2      -10.3130   41.5200  -20.3170 O.co2  69  GLU69      -0.2457
     81  N         -8.7230   44.8940  -24.3910 N.am   70  MET70      -0.1977
     82  CA        -8.3600   46.3040  -24.3070 C.3    70  MET70       0.1605
     83  C         -8.7940   46.8900  -22.9680 C.2    70  MET70       0.2287
     84  O         -9.7390   46.4180  -22.3420 O.2    70  MET70      -0.2864
     85  CB        -9.0520   47.0970  -25.4220 C.3    70  MET70       0.0413
     86  CG        -8.7510   46.6510  -26.8450 C.3    70  MET70       0.0598
     87  SD        -7.0650   46.9690  -27.3440 S.3    70  MET70      -0.1393
     88  CE        -7.0560   48.7420  -27.4730 C.3    70  MET70       0.0692
     89  N         -6.6300   49.5570  -30.4770 N.3    76  ALA76      -0.1245
     90  CA        -5.2980   50.0970  -30.2820 C.3    76  ALA76       0.1562
     91  C         -4.6110   50.7740  -31.4560 C.2    76  ALA76       0.2260
     92  O         -4.6040   50.2690  -32.5790 O.2    76  ALA76      -0.2867
     93  CB        -4.3860   48.9900  -29.7330 C.3    76  ALA76       0.0290
     94  N          4.1780   42.6720  -29.3300 N.3   102  ILE102     -0.1231
     95  CA         3.7300   42.0350  -30.5610 C.3   102  ILE102      0.1692
     96  C          2.6240   42.8380  -31.2430 C.2   102  ILE102      0.2592
     97  O          2.0280   42.3790  -32.2100 O.2   102  ILE102     -0.2718
     98  CB         3.1860   40.6330  -30.2450 C.3   102  ILE102      0.0266
     99  CG1        1.8950   40.7540  -29.4210 C.3   102  ILE102      0.0019
    100  CG2        4.2270   39.8450  -29.4320 C.3   102  ILE102      0.0020
    101  CD1        1.3490   39.4300  -28.9390 C.3   102  ILE102      0.0001
    102  N          2.3780   44.0400  -30.7350 N.am  103  ASP103     -0.1960
    103  CA         1.3180   44.9140  -31.2250 C.3   103  ASP103      0.1840
    104  C          1.5830   45.7170  -32.4960 C.2   103  ASP103      0.2622
    105  O          0.6960   46.4260  -32.9650 O.2   103  ASP103     -0.2715
    106  CB         0.9040   45.8830  -30.1110 C.3   103  ASP103      0.1450
    107  CG         2.0590   46.7760  -29.6400 C.2   103  ASP103      0.3671
    108  OD1        2.8570   47.2410  -30.4880 O.co2 103  ASP103     -0.2456
    109  OD2        2.1500   47.0260  -28.4190 O.co2 103  ASP103     -0.2456
    110  N          2.7990   45.6350  -33.0350 N.am  104  MET104     -0.1963
    111  CA         3.1430   46.3550  -34.2590 C.3   104  MET104      0.1736
    112  C          3.0250   47.8850  -34.1670 C.2   104  MET104      0.2616
    113  O          3.2250   48.5670  -35.1720 O.2   104  MET104     -0.2715
    114  CB         2.2480   45.8800  -35.4030 C.3   104  MET104      0.0427
    115  CG         1.9780   44.3840  -35.4230 C.3   104  MET104      0.0599
    116  SD         0.5160   44.0420  -36.4070 S.3   104  MET104     -0.1393
    117  CE        -0.7880   44.2900  -35.1850 C.3   104  MET104      0.0692
    118  N          2.7130   48.4300  -32.9910 N.am  105  LEU105     -0.1977
    119  CA         2.5600   49.8830  -32.8470 C.3   105  LEU105      0.1596
    120  C          3.7610   50.7450  -33.2460 C.2   105  LEU105      0.2287
    121  O          3.5760   51.8460  -33.7640 O.2   105  LEU105     -0.2864
    122  CB         2.1120   50.2410  -31.4240 C.3   105  LEU105      0.0297
    123  CG         0.7730   49.6040  -31.0210 C.3   105  LEU105      0.0022
    124  CD1        0.3430   50.1220  -29.6670 C.3   105  LEU105      0.0001
    125  CD2       -0.2980   49.9180  -32.0800 C.3   105  LEU105      0.0001
    126  N          9.7190   38.8980  -29.8460 N.3   118  HIS118     -0.1241
    127  CA         8.6030   37.9670  -29.7060 C.3   118  HIS118      0.1621
    128  C          7.7210   37.8860  -30.9510 C.2   118  HIS118      0.2264
    129  O          6.5950   37.3860  -30.8880 O.2   118  HIS118     -0.2867
    130  CB         7.7570   38.3510  -28.4840 C.3   118  HIS118      0.0745
    131  CG         8.4390   38.0860  -27.1770 C.ar  118  HIS118      0.0817
    132  ND1        8.0940   38.7310  -26.0090 N.ar  118  HIS118     -0.2268
    133  CD2        9.4370   37.2290  -26.8500 C.ar  118  HIS118      0.1154
    134  CE1        8.8490   38.2860  -25.0210 C.ar  118  HIS118      0.1986
    135  NE2        9.6720   37.3740  -25.5050 N.ar  118  HIS118     -0.2212
    136  N          1.8040   40.0970  -34.5640 N.3   121  MET121     -0.1245
    137  CA         0.5140   39.7110  -35.1090 C.3   121  MET121      0.1570
    138  C          0.3950   39.9910  -36.6020 C.2   121  MET121      0.2261
    139  O         -0.5710   39.5620  -37.2370 O.2   121  MET121     -0.2867
    140  CB        -0.5810   40.4810  -34.3790 C.3   121  MET121      0.0387
    141  CG        -0.6920   40.1530  -32.9120 C.3   121  MET121      0.0595
    142  SD        -1.6040   38.6490  -32.6770 S.3   121  MET121     -0.1393
    143  CE        -1.6520   38.5490  -30.9220 C.3   121  MET121      0.0692
    144  N         -2.4300   40.1030  -41.1790 N.3   135  TRP135     -0.1241
    145  CA        -3.3650   40.4760  -40.1200 C.3   135  TRP135      0.1605
    146  C         -4.5700   41.2350  -40.6750 C.2   135  TRP135      0.2264
    147  O         -5.6950   41.0740  -40.1970 O.2   135  TRP135     -0.2867
    148  CB        -2.6340   41.3290  -39.0790 C.3   135  TRP135      0.0550
    149  CG        -3.5070   41.9130  -38.0020 C.ar  135  TRP135      0.0003
    150  CD1       -3.9270   43.2090  -37.9040 C.ar  135  TRP135      0.0946
    151  CD2       -4.0310   41.2330  -36.8510 C.ar  135  TRP135      0.0152
    152  NE1       -4.6760   43.3810  -36.7620 N.ar  135  TRP135     -0.2442
    153  CE2       -4.7560   42.1860  -36.0970 C.ar  135  TRP135      0.0810
    154  CE3       -3.9590   39.9130  -36.3840 C.ar  135  TRP135      0.0012
    155  CZ2       -5.4070   41.8600  -34.8980 C.ar  135  TRP135      0.0191
    156  CZ3       -4.6100   39.5890  -35.1870 C.ar  135  TRP135      0.0001
    157  CH2       -5.3220   40.5630  -34.4620 C.ar  135  TRP135      0.0015
    158  N          4.0000   34.9580  -33.3630 N.3   162  VAL162     -0.1231
    159  CA         4.4710   35.5320  -32.1210 C.3   162  VAL162      0.1692
    160  C          5.0450   34.3900  -31.3100 C.2   162  VAL162      0.2592
    161  O          4.7770   33.2250  -31.5990 O.2   162  VAL162     -0.2718
    162  CB         3.3200   36.1640  -31.3240 C.3   162  VAL162      0.0266
    163  CG1        2.7370   37.3420  -32.0940 C.3   162  VAL162      0.0020
    164  CG2        2.2520   35.1250  -31.0640 C.3   162  VAL162      0.0020
    165  N          5.8440   34.7230  -30.3070 N.am  163  VAL163     -0.1966
    166  CA         6.4300   33.7150  -29.4420 C.3   163  VAL163      0.1727
    167  C          5.4740   33.4710  -28.2810 C.2   163  VAL163      0.2616
    168  O          5.2200   34.3690  -27.4860 O.2   163  VAL163     -0.2715
    169  CB         7.7860   34.1860  -28.8710 C.3   163  VAL163      0.0290
    170  CG1        8.3470   33.1320  -27.9330 C.3   163  VAL163      0.0023
    171  CG2        8.7660   34.4720  -30.0170 C.3   163  VAL163      0.0023
    172  N          4.9280   32.2660  -28.1930 N.am  164  LEU164     -0.1963
    173  CA         4.0130   31.9380  -27.1060 C.3   164  LEU164      0.1728
    174  C          4.7710   31.3210  -25.9330 C.2   164  LEU164      0.2616
    175  O          5.9020   30.8520  -26.0890 O.2   164  LEU164     -0.2715
    176  CB         2.9490   30.9520  -27.5950 C.3   164  LEU164      0.0311
    177  CG         2.0620   31.4520  -28.7410 C.3   164  LEU164      0.0022
    178  CD1        1.1530   30.3290  -29.2300 C.3   164  LEU164      0.0001
    179  CD2        1.2360   32.6460  -28.2610 C.3   164  LEU164      0.0001
    180  N          4.1580   31.3350  -24.7530 N.am  165  PHE165     -0.1960
    181  CA         4.7860   30.7250  -23.5890 C.3   165  PHE165      0.1771
    182  C          5.0440   29.2790  -23.9800 C.2   165  PHE165      0.2620
    183  O          4.2340   28.6650  -24.6750 O.2   165  PHE165     -0.2715
    184  CB         3.8510   30.7700  -22.3850 C.3   165  PHE165      0.0574
    185  CG         3.7880   32.1140  -21.7070 C.ar  165  PHE165     -0.0200
    186  CD1        4.8380   32.5510  -20.8950 C.ar  165  PHE165     -0.0042
    187  CD2        2.6770   32.9400  -21.8660 C.ar  165  PHE165     -0.0042
    188  CE1        4.7760   33.7920  -20.2500 C.ar  165  PHE165     -0.0003
    189  CE2        2.6100   34.1760  -21.2270 C.ar  165  PHE165     -0.0003
    190  CZ         3.6590   34.6020  -20.4180 C.ar  165  PHE165     -0.0000
    191  N          6.1790   28.7390  -23.5560 N.am  166  GLY166     -0.1940
    192  CA         6.4930   27.3630  -23.9020 C.3   166  GLY166      0.2014
    193  C          7.2130   27.2140  -25.2320 C.2   166  GLY166      0.2638
    194  O          7.6200   26.1120  -25.6030 O.2   166  GLY166     -0.2714
    195  N          7.3550   28.3130  -25.9650 N.am  167  GLU167     -0.1977
    196  CA         8.0550   28.2740  -27.2460 C.3   167  GLU167      0.1602
    197  C          9.4190   28.9340  -27.0620 C.2   167  GLU167      0.2287
    198  O          9.5670   29.8640  -26.2690 O.2   167  GLU167     -0.2864
    199  CB         7.2850   29.0330  -28.3450 C.3   167  GLU167      0.0415
    200  CG         6.0190   28.3600  -28.8670 C.3   167  GLU167      0.1163
    201  CD         5.4070   29.0890  -30.0730 C.2   167  GLU167      0.3649
    202  OE1        5.2690   30.3320  -30.0270 O.co2 167  GLU167     -0.2457
    203  OE2        5.0500   28.4210  -31.0680 O.co2 167  GLU167     -0.2457
    204  N         12.6780   31.2710  -27.7820 N.3   169  LEU169     -0.1245
    205  CA        12.8630   32.6160  -28.2980 C.3   169  LEU169      0.1561
    206  C         13.5460   32.5320  -29.6600 C.2   169  LEU169      0.2260
    207  O         14.2890   31.5920  -29.9260 O.2   169  LEU169     -0.2867
    208  CB        13.7340   33.4040  -27.3110 C.3   169  LEU169      0.0270
    209  CG        13.5890   34.9210  -27.1560 C.3   169  LEU169      0.0019
    210  CD1       12.1430   35.3000  -26.8650 C.3   169  LEU169      0.0001
    211  CD2       14.4930   35.3860  -26.0240 C.3   169  LEU169      0.0001
    212  N         11.8200   40.0430  -18.1820 N.3   196  VAL196     -0.1231
    213  CA        11.8040   39.0060  -19.2040 C.3   196  VAL196      0.1692
    214  C         13.0660   38.9980  -20.0750 C.2   196  VAL196      0.2592
    215  O         13.3590   39.9590  -20.7850 O.2   196  VAL196     -0.2718
    216  CB        10.5420   39.1540  -20.1080 C.3   196  VAL196      0.0266
    217  CG1       10.5680   38.1270  -21.2350 C.3   196  VAL196      0.0020
    218  CG2        9.2820   38.9800  -19.2730 C.3   196  VAL196      0.0020
    219  N         13.7990   37.8900  -20.0050 N.am  197  TYR197     -0.1976
    220  CA        15.0300   37.7000  -20.7570 C.3   197  TYR197      0.1639
    221  C         14.8150   38.0510  -22.2240 C.2   197  TYR197      0.2290
    222  O         13.8500   37.5900  -22.8380 O.2   197  TYR197     -0.2864
    223  CB        15.5060   36.2430  -20.6180 C.3   197  TYR197      0.0560
    224  CG        16.8110   35.9780  -21.3320 C.ar  197  TYR197     -0.0198
    225  CD1       16.8390   35.6930  -22.7000 C.ar  197  TYR197     -0.0009
    226  CD2       18.0280   36.1030  -20.6610 C.ar  197  TYR197     -0.0009
    227  CE1       18.0430   35.5480  -23.3850 C.ar  197  TYR197      0.0417
    228  CE2       19.2440   35.9650  -21.3370 C.ar  197  TYR197      0.0417
    229  CZ        19.2430   35.6920  -22.6980 C.ar  197  TYR197      0.1957
    230  OH        20.4380   35.6010  -23.3790 O.3   197  TYR197     -0.2866
@<TRIPOS>BOND
     1   144   145    1
     2   146   147    2
     3   146   145    1
     4   145   148    1
     5   148   149    1
     6   149   150   ar
     7   149   151   ar
     8   150   152   ar
     9   139   138    2
    10   151   154   ar
    11   151   153   ar
    12   152   153   ar
    13   138   137    1
    14   116   115    1
    15   116   117    1
    16   154   156   ar
    17   153   155   ar
    18   115   114    1
    19   114   111    1
    20   156   157   ar
    21   113   112    2
    22   137   136    1
    23   137   140    1
    24   155   157   ar
    25   140   141    1
    26   111   112    1
    27   111   110    1
    28   112   118   am
    29   121   120    2
    30   158   159    1
    31   120   119    1
    32   110   104   am
    33   118   119    1
    34   105   104    2
    35   141   142    1
    36   119   122    1
    37   142   143    1
    38    92    91    2
    39   104   103    1
    40    97    96    2
    41   159   162    1
    42   159   160    1
    43   163   162    1
    44   125   123    1
    45   161   160    2
    46    91    90    1
    47   122   123    1
    48   162   164    1
    49   160   165   am
    50    70    71    1
    51    70    69    1
    52    96   102   am
    53    96    95    1
    54   103   102    1
    55   103   106    1
    56   203   201   ar
    57   123   124    1
    58   128   129    2
    59   128   127    1
    60    95    98    1
    61    95    94    1
    62   108   107   ar
    63    89    90    1
    64   165   166    1
    65    90    93    1
    66    69    68    1
    67    98   100    1
    68    98    99    1
    69    45    43   ar
    70    45    46   ar
    71   106   107    1
    72   201   202   ar
    73   201   200    1
    74   171   169    1
    75   207   206    2
    76   126   127    1
    77   127   130    1
    78   206   205    1
    79   107   109   ar
    80    43    41   ar
    81   166   169    1
    82   166   167    1
    83    46    44   ar
    84    99   101    1
    85   178   177    1
    86    68    65    1
    87   169   170    1
    88   200   199    1
    89   177   179    1
    90   177   176    1
    91   130   131    1
    92   199   196    1
    93    41    40    1
    94    41    42   ar
    95   205   204    1
    96   205   208    1
    97   167   172   am
    98   167   168    2
    99    44    42   ar
   100   172   173    1
   101    62    63    1
   102    62    59    1
   103    65    64    1
   104    65    66    1
   105     8     6    1
   106    40    37    1
   107   176   173    1
   108    64    60   am
   109    88    87    1
   110    61    60    2
   111    87    86    1
   112    38    39    2
   113    38    37    1
   114   208   209    1
   115    60    59    1
   116   196   197    1
   117   196   195    1
   118    67    66    2
   119   131   133   ar
   120   131   132   ar
   121   209   210    1
   122   209   211    1
   123   173   174    1
   124   197   198    2
   125    66    72   am
   126   133   135   ar
   127    86    85    1
   128    59    58    1
   129     6     5    1
   130    37    36    1
   131   175   174    2
   132   132   134   ar
   133    58    49   am
   134   195   193   am
   135   174   180   am
   136    72    73    1
   137   194   193    2
   138   135   134   ar
   139    85    82    1
   140     5     7    1
   141     5     2    1
   142   193   192    1
   143    47    48    1
   144    34    33    2
   145    49    50    2
   146    49    48    1
   147   180   181    1
   148   183   182    2
   149    73    74    1
   150    73    76    1
   151     1     2    1
   152    75    74    2
   153    74    81   am
   154    33    32    1
   155    81    82    1
   156     2     3    1
   157    82    83    1
   158    32    35    1
   159    32    31    1
   160    48    51    1
   161   182   181    1
   162   182   191   am
   163   192   191    1
   164    53    55   ar
   165    53    52   ar
   166   181   184    1
   167    51    52    1
   168   227   225   ar
   169   227   229   ar
   170   230   229    1
   171    76    77    1
   172    55    57   ar
   173     3     4    2
   174    83    84    2
   175    52    54   ar
   176   222   221    2
   177   225   224   ar
   178   229   228   ar
   179    30    28    1
   180   184   185    1
   181   221   220    1
   182    29    28    1
   183    77    78    1
   184    19    18   ar
   185    19    17   ar
   186   187   185   ar
   187   187   189   ar
   188    28    27    2
   189    57    56   ar
   190   185   186   ar
   191    54    56   ar
   192    18    16   ar
   193   228   226   ar
   194   224   226   ar
   195   224   223    1
   196    17    15   ar
   197   217   216    1
   198   189   190   ar
   199    78    79   ar
   200    78    80   ar
   201   186   188   ar
   202   215   214    2
   203   220   223    1
   204   220   219    1
   205    27    26    1
   206   190   188   ar
   207   216   218    1
   208   216   213    1
   209   214   219   am
   210   214   213    1
   211    16    14   ar
   212    15    14   ar
   213    26    25    1
   214    14    13    1
   215   213   212    1
   216    25    24    1
   217     9    10    1
   218    13    10    1
   219    24    21    1
   220    10    11    1
   221    21    22    1
   222    21    20    1
   223    22    23    2
   224    11    12    2
