@<TRIPOS>MOLECULE
tmp/1yc2D01.pdb
 85 82 0 0 0
SMALL
GASTEIGER

@<TRIPOS>ATOM
      1  N         23.3770   18.7750   29.1750 N.3    23  ALA23      -0.1245
      2  CA        24.2790   19.2010   28.1030 C.3    23  ALA23       0.1562
      3  C         24.2500   18.2600   26.9060 C.2    23  ALA23       0.2260
      4  O         24.5060   18.6700   25.7700 O.2    23  ALA23      -0.2867
      5  CB        25.7030   19.3130   28.6360 C.3    23  ALA23       0.0290
      6  N         22.1870   19.2640   23.5050 N.3    26  SER26      -0.1217
      7  CA        22.8310   20.2040   22.5890 C.3    26  SER26       0.1889
      8  C         24.1180   19.6490   21.9790 C.2    26  SER26       0.2288
      9  O         24.9100   20.4010   21.4130 O.2    26  SER26      -0.2866
     10  CB        23.1440   21.5240   23.3100 C.3    26  SER26       0.2089
     11  OG        21.9680   22.1550   23.7900 O.3    26  SER26      -0.2183
     12  N         27.2060   22.6570   20.7850 N.3    31  ILE31      -0.1231
     13  CA        27.7020   23.0700   22.0960 C.3    31  ILE31       0.1678
     14  C         28.1950   21.8510   22.8720 C.2    31  ILE31       0.2434
     15  O         27.4280   21.2200   23.6020 O.2    31  ILE31      -0.2733
     16  CB        26.5950   23.7830   22.8800 C.3    31  ILE31       0.0265
     17  CG1       26.3310   25.1530   22.2210 C.3    31  ILE31       0.0019
     18  CG2       26.9500   23.9110   24.3410 C.3    31  ILE31       0.0020
     19  CD1       25.0920   25.8420   22.7210 C.3    31  ILE31       0.0001
     20  N         29.4900   21.5120   22.7330 N.am   32  PRO32      -0.2718
     21  CA        30.0770   20.3590   23.4250 C.3    32  PRO32       0.1535
     22  C         29.6940   20.2730   24.9000 C.2    32  PRO32       0.2599
     23  O         29.6990   21.2740   25.6200 O.2    32  PRO32      -0.2715
     24  CB        31.5800   20.5520   23.2130 C.3    32  PRO32       0.0310
     25  CG        31.7180   22.0380   23.0330 C.3    32  PRO32       0.0237
     26  CD        30.5460   22.3500   22.1420 C.3    32  PRO32       0.0939
     27  N         29.3630   19.0610   25.3360 N.am   33  THR33      -0.1937
     28  CA        28.9580   18.8110   26.7120 C.3    33  THR33       0.2028
     29  C         30.0180   19.2080   27.7390 C.2    33  THR33       0.2642
     30  O         31.0920   19.7110   27.3900 O.2    33  THR33      -0.2714
     31  CB        28.5960   17.3360   26.8780 C.3    33  THR33       0.1808
     32  OG1       29.7390   16.5570   26.5610 O.3    33  THR33      -0.2208
     33  CG2       27.4190   16.9380   26.0090 C.3    33  THR33       0.0379
     34  N         29.6970   18.9810   29.0100 N.am   34  PHE34      -0.1973
     35  CA        30.5970   19.2930   30.1160 C.3    34  PHE34       0.1639
     36  C         31.7950   18.3470   30.1390 C.2    34  PHE34       0.2290
     37  O         32.7930   18.6160   30.8110 O.2    34  PHE34      -0.2864
     38  CB        29.8420   19.2010   31.4450 C.3    34  PHE34       0.0560
     39  CG        29.0710   20.4450   31.7990 C.ar   34  PHE34      -0.0200
     40  CD1       29.7290   21.5770   32.2730 C.ar   34  PHE34      -0.0042
     41  CD2       27.6860   20.4850   31.6660 C.ar   34  PHE34      -0.0042
     42  CE1       29.0180   22.7300   32.6110 C.ar   34  PHE34      -0.0003
     43  CE2       26.9660   21.6320   32.0010 C.ar   34  PHE34      -0.0003
     44  CZ        27.6330   22.7550   32.4740 C.ar   34  PHE34      -0.0000
     45  N         32.1720   28.0420   21.8010 N.3    71  ASP71      -0.1239
     46  CA        31.7240   26.8740   21.0380 C.3    71  ASP71       0.1674
     47  C         31.5720   27.0980   19.5330 C.2    71  ASP71       0.2266
     48  O         32.5590   27.0590   18.7950 O.2    71  ASP71      -0.2867
     49  CB        30.3950   26.3530   21.6120 C.3    71  ASP71       0.1410
     50  CG        30.4750   26.0530   23.1050 C.2    71  ASP71       0.3668
     51  OD1       31.2280   25.1350   23.4950 O.co2  71  ASP71      -0.2456
     52  OD2       29.7840   26.7380   23.8900 O.co2  71  ASP71      -0.2456
     53  N         19.2850   22.2240   32.5430 N.3    99  GLN99      -0.1231
     54  CA        20.4220   22.8150   33.2280 C.3    99  GLN99       0.1698
     55  C         21.1660   23.6700   32.2010 C.2    99  GLN99       0.2592
     56  O         22.1570   24.3260   32.5290 O.2    99  GLN99      -0.2718
     57  CB        21.3670   21.7310   33.7540 C.3    99  GLN99       0.0381
     58  CG        20.7260   20.7580   34.7180 C.3    99  GLN99       0.0905
     59  CD        21.7430   19.8920   35.4410 C.2    99  GLN99       0.2608
     60  OE1       22.6840   19.3790   34.8340 O.2    99  GLN99      -0.2717
     61  NE2       21.5520   19.7190   36.7460 N.am   99  GLN99      -0.0878
     62  N         20.6890   23.6580   30.9550 N.am  100  ASN100     -0.1960
     63  CA        21.3420   24.4210   29.8890 C.3   100  ASN100      0.1819
     64  C         21.0440   25.9100   29.9740 C.2   100  ASN100      0.2621
     65  O         19.9520   26.3230   30.3650 O.2   100  ASN100     -0.2715
     66  CB        20.9530   23.8680   28.5110 C.3   100  ASN100      0.1195
     67  CG        21.3440   22.4060   28.3440 C.2   100  ASN100      0.2630
     68  OD1       22.2450   21.9230   29.0230 O.2   100  ASN100     -0.2716
     69  ND2       20.6760   21.7010   27.4360 N.am  100  ASN100     -0.0877
     70  N         22.0340   26.7110   29.5980 N.am  101  ILE101     -0.1963
     71  CA        21.9150   28.1560   29.6680 C.3   101  ILE101      0.1727
     72  C         21.8460   28.8290   28.3090 C.2   101  ILE101      0.2616
     73  O         21.9260   30.0490   28.2190 O.2   101  ILE101     -0.2715
     74  CB        23.1080   28.7450   30.4370 C.3   101  ILE101      0.0290
     75  CG1       24.4140   28.3560   29.7340 C.3   101  ILE101      0.0022
     76  CG2       23.1050   28.2390   31.8780 C.3   101  ILE101      0.0023
     77  CD1       25.6510   29.0090   30.3340 C.3   101  ILE101      0.0001
     78  N         21.6630   28.0230   27.2680 N.am  102  ASP102     -0.1971
     79  CA        21.6230   28.4780   25.8720 C.3   102  ASP102      0.1709
     80  C         20.2710   28.9140   25.2780 C.2   102  ASP102      0.2293
     81  O         20.2070   29.2670   24.1040 O.2   102  ASP102     -0.2864
     82  CB        22.2210   27.3670   24.9990 C.3   102  ASP102      0.1436
     83  CG        21.5030   26.0250   25.1930 C.2   102  ASP102      0.3671
     84  OD1       22.1280   24.9700   24.9490 O.co2 102  ASP102     -0.2456
     85  OD2       20.3070   26.0230   25.5840 O.co2 102  ASP102     -0.2456
@<TRIPOS>BOND
     1    48    47    2
     2    47    46    1
     3    12    13    1
     4    46    49    1
     5    46    45    1
     6     9     8    2
     7    49    50    1
     8     8     7    1
     9    13    14    1
    10    13    16    1
    11    26    20    1
    12    26    25    1
    13    17    19    1
    14    17    16    1
    15     7    10    1
    16     7     6    1
    17    20    14   am
    18    20    21    1
    19    14    15    2
    20    16    18    1
    21    25    24    1
    22    50    51   ar
    23    50    52   ar
    24    24    21    1
    25    10    11    1
    26    21    22    1
    27    81    80    2
    28    22    27   am
    29    22    23    2
    30    84    83   ar
    31    82    83    1
    32    82    79    1
    33    83    85   ar
    34    80    79    1
    35    27    28    1
    36     4     3    2
    37    79    78    1
    38    33    31    1
    39    32    31    1
    40    28    31    1
    41    28    29    1
    42     3     2    1
    43    78    72   am
    44    30    29    2
    45    69    67   am
    46    29    34   am
    47     2     5    1
    48     2     1    1
    49    73    72    2
    50    72    71    1
    51    67    66    1
    52    67    68    2
    53    66    63    1
    54    34    35    1
    55    70    71    1
    56    70    64   am
    57    71    74    1
    58    75    77    1
    59    75    74    1
    60    63    64    1
    61    63    62    1
    62    64    65    2
    63    35    36    1
    64    35    38    1
    65    36    37    2
    66    74    76    1
    67    62    55   am
    68    38    39    1
    69    41    39   ar
    70    41    43   ar
    71    39    40   ar
    72    43    44   ar
    73    55    56    2
    74    55    54    1
    75    40    42   ar
    76    44    42   ar
    77    53    54    1
    78    54    57    1
    79    57    58    1
    80    58    59    1
    81    60    59    2
    82    59    61   am
