@<TRIPOS>MOLECULE
tmp/1yc2D03.pdb
 96 92 0 0 0
SMALL
GASTEIGER

@<TRIPOS>ATOM
      1  N         27.2060   22.6570   20.7850 N.3    31  ILE31      -0.1245
      2  CA        27.7020   23.0700   22.0960 C.3    31  ILE31       0.1561
      3  C         28.1950   21.8510   22.8720 C.2    31  ILE31       0.2260
      4  O         27.4280   21.2200   23.6020 O.2    31  ILE31      -0.2867
      5  CB        26.5950   23.7830   22.8800 C.3    31  ILE31       0.0252
      6  CG1       26.3310   25.1530   22.2210 C.3    31  ILE31       0.0019
      7  CG2       26.9500   23.9110   24.3410 C.3    31  ILE31       0.0019
      8  CD1       25.0920   25.8420   22.7210 C.3    31  ILE31       0.0001
      9  N         35.6410   29.9770   24.9190 N.3    69  MET69      -0.1230
     10  CA        34.8360   28.7590   24.9330 C.3    69  MET69       0.1702
     11  C         33.4550   28.9390   24.2930 C.2    69  MET69       0.2592
     12  O         32.5650   28.1250   24.5280 O.2    69  MET69      -0.2718
     13  CB        34.6380   28.2810   26.3770 C.3    69  MET69       0.0401
     14  CG        35.9130   28.0290   27.1680 C.3    69  MET69       0.0596
     15  SD        36.8470   26.5980   26.5950 S.3    69  MET69      -0.1393
     16  CE        38.2080   27.3820   25.7000 C.3    69  MET69       0.0692
     17  N         33.2700   29.9820   23.4830 N.am   70  LYS70      -0.1966
     18  CA        31.9610   30.2290   22.8680 C.3    70  LYS70       0.1728
     19  C         31.3890   29.0970   22.0100 C.2    70  LYS70       0.2616
     20  O         30.2510   29.1840   21.5500 O.2    70  LYS70      -0.2715
     21  CB        31.9690   31.5400   22.0670 C.3    70  LYS70       0.0311
     22  CG        32.9380   31.5990   20.9070 C.3    70  LYS70       0.0038
     23  CD        32.8580   32.9610   20.2360 C.3    70  LYS70       0.0206
     24  CE        33.8580   33.0900   19.1040 C.3    70  LYS70       0.1093
     25  NZ        33.7090   34.3910   18.3880 N.3    70  LYS70      -0.1314
     26  N         32.1720   28.0420   21.8010 N.am   71  ASP71      -0.1957
     27  CA        31.7240   26.8740   21.0380 C.3    71  ASP71       0.1840
     28  C         31.5720   27.0980   19.5330 C.2    71  ASP71       0.2621
     29  O         32.5590   27.0590   18.7950 O.2    71  ASP71      -0.2715
     30  CB        30.3950   26.3530   21.6120 C.3    71  ASP71       0.1450
     31  CG        30.4750   26.0530   23.1050 C.2    71  ASP71       0.3671
     32  OD1       31.2280   25.1350   23.4950 O.co2  71  ASP71      -0.2456
     33  OD2       29.7840   26.7380   23.8900 O.co2  71  ASP71      -0.2456
     34  N         30.3330   27.3150   19.0840 N.am   72  LYS72      -0.1977
     35  CA        30.0440   27.5310   17.6640 C.3    72  LYS72       0.1596
     36  C         29.2200   28.7920   17.3800 C.2    72  LYS72       0.2287
     37  O         28.3500   29.1780   18.1690 O.2    72  LYS72      -0.2864
     38  CB        29.3070   26.3210   17.0790 C.3    72  LYS72       0.0298
     39  CG        28.9330   26.4950   15.6110 C.3    72  LYS72       0.0038
     40  CD        28.0110   25.3980   15.1150 C.3    72  LYS72       0.0206
     41  CE        27.6230   25.6500   13.6680 C.3    72  LYS72       0.1093
     42  NZ        26.6940   24.6140   13.1470 N.3    72  LYS72      -0.1314
     43  N         24.8180   29.4760   16.3850 N.3    75  ALA75      -0.1245
     44  CA        24.2060   28.2930   16.9870 C.3    75  ALA75       0.1562
     45  C         22.6890   28.3590   16.9020 C.2    75  ALA75       0.2260
     46  O         22.1100   29.4320   16.7250 O.2    75  ALA75      -0.2867
     47  CB        24.6440   28.1540   18.4500 C.3    75  ALA75       0.0290
     48  N         22.0340   26.7110   29.5980 N.3   101  ILE101     -0.1231
     49  CA        21.9150   28.1560   29.6680 C.3   101  ILE101      0.1692
     50  C         21.8460   28.8290   28.3090 C.2   101  ILE101      0.2592
     51  O         21.9260   30.0490   28.2190 O.2   101  ILE101     -0.2718
     52  CB        23.1080   28.7450   30.4370 C.3   101  ILE101      0.0266
     53  CG1       24.4140   28.3560   29.7340 C.3   101  ILE101      0.0019
     54  CG2       23.1050   28.2390   31.8780 C.3   101  ILE101      0.0020
     55  CD1       25.6510   29.0090   30.3340 C.3   101  ILE101      0.0001
     56  N         21.6630   28.0230   27.2680 N.am  102  ASP102     -0.1974
     57  CA        21.6230   28.4780   25.8720 C.3   102  ASP102      0.1709
     58  C         20.2710   28.9140   25.2780 C.2   102  ASP102      0.2293
     59  O         20.2070   29.2670   24.1040 O.2   102  ASP102     -0.2864
     60  CB        22.2210   27.3670   24.9990 C.3   102  ASP102      0.1436
     61  CG        21.5030   26.0250   25.1930 C.2   102  ASP102      0.3671
     62  OD1       22.1280   24.9700   24.9490 O.co2 102  ASP102     -0.2456
     63  OD2       20.3070   26.0230   25.5840 O.co2 102  ASP102     -0.2456
     64  N         21.9400   32.9830   29.7830 N.3   120  MET120     -0.1245
     65  CA        22.7380   34.0770   29.2510 C.3   120  MET120      0.1570
     66  C         21.8780   35.1510   28.6270 C.2   120  MET120      0.2261
     67  O         22.3910   36.1830   28.2060 O.2   120  MET120     -0.2867
     68  CB        23.6790   33.5580   28.1650 C.3   120  MET120      0.0387
     69  CG        24.7880   32.6570   28.6540 C.3   120  MET120      0.0595
     70  SD        25.9490   33.5550   29.7050 S.3   120  MET120     -0.1393
     71  CE        26.7540   34.6560   28.4660 C.3   120  MET120      0.0692
     72  N         20.8440   39.8140   25.9530 N.3   134  TRP134     -0.1241
     73  CA        22.0780   39.3050   25.3670 C.3   134  TRP134      0.1605
     74  C         22.2470   39.8650   23.9670 C.2   134  TRP134      0.2264
     75  O         23.3700   40.0410   23.4950 O.2   134  TRP134     -0.2867
     76  CB        22.0560   37.7740   25.3130 C.3   134  TRP134      0.0550
     77  CG        23.2580   37.1570   24.6310 C.ar  134  TRP134      0.0003
     78  CD1       23.2380   36.2270   23.6300 C.ar  134  TRP134      0.0946
     79  CD2       24.6480   37.4050   24.9170 C.ar  134  TRP134      0.0152
     80  NE1       24.5190   35.8810   23.2770 N.ar  134  TRP134     -0.2442
     81  CE2       25.4040   36.5870   24.0500 C.ar  134  TRP134      0.0810
     82  CE3       25.3250   38.2380   25.8180 C.ar  134  TRP134      0.0012
     83  CZ2       26.8050   36.5750   24.0580 C.ar  134  TRP134      0.0191
     84  CZ3       26.7240   38.2270   25.8240 C.ar  134  TRP134      0.0001
     85  CH2       27.4430   37.4000   24.9490 C.ar  134  TRP134      0.0015
     86  N         30.6520   41.0250   21.7200 N.3   141  PHE141     -0.1241
     87  CA        31.2040   39.8020   22.2870 C.3   141  PHE141      0.1605
     88  C         31.9300   38.9870   21.2190 C.2   141  PHE141      0.2264
     89  O         33.0660   38.5590   21.4160 O.2   141  PHE141     -0.2867
     90  CB        30.0760   38.9620   22.9010 C.3   141  PHE141      0.0534
     91  CG        30.5140   37.6040   23.3810 C.ar  141  PHE141     -0.0203
     92  CD1       31.2150   37.4630   24.5740 C.ar  141  PHE141     -0.0042
     93  CD2       30.2040   36.4620   22.6470 C.ar  141  PHE141     -0.0042
     94  CE1       31.5940   36.2070   25.0340 C.ar  141  PHE141     -0.0003
     95  CE2       30.5800   35.1980   23.0950 C.ar  141  PHE141     -0.0003
     96  CZ        31.2760   35.0710   24.2930 C.ar  141  PHE141     -0.0000
@<TRIPOS>BOND
     1    42    41    1
     2    41    40    1
     3    40    39    1
     4    39    38    1
     5    43    44    1
     6    46    45    2
     7    45    44    1
     8    44    47    1
     9    38    35    1
    10    36    35    1
    11    36    37    2
    12    35    34    1
    13    25    24    1
    14    29    28    2
    15    34    28   am
    16    24    23    1
    17    28    27    1
    18    23    22    1
    19     1     2    1
    20    22    21    1
    21    27    30    1
    22    27    26    1
    23    88    89    2
    24    88    87    1
    25    20    19    2
    26    30    31    1
    27    86    87    1
    28    26    19   am
    29    19    18    1
    30    21    18    1
    31     2     3    1
    32     2     5    1
    33     6     8    1
    34     6     5    1
    35    87    90    1
    36    93    95   ar
    37    93    91   ar
    38    18    17    1
    39     3     4    2
    40     5     7    1
    41    90    91    1
    42    95    96   ar
    43    31    32   ar
    44    31    33   ar
    45    80    78   ar
    46    80    81   ar
    47    91    92   ar
    48    17    11   am
    49    75    74    2
    50    78    77   ar
    51    74    73    1
    52    81    83   ar
    53    81    79   ar
    54    83    85   ar
    55    59    58    2
    56    96    94   ar
    57    11    12    2
    58    11    10    1
    59    92    94   ar
    60    77    79   ar
    61    77    76    1
    62    79    82   ar
    63     9    10    1
    64    10    13    1
    65    62    61   ar
    66    85    84   ar
    67    60    61    1
    68    60    57    1
    69    61    63   ar
    70    58    57    1
    71    76    73    1
    72    73    72    1
    73    16    15    1
    74    82    84   ar
    75    57    56    1
    76    13    14    1
    77    15    14    1
    78    56    50   am
    79    68    69    1
    80    68    65    1
    81    67    66    2
    82    51    50    2
    83    50    49    1
    84    71    70    1
    85    66    65    1
    86    69    70    1
    87    65    64    1
    88    48    49    1
    89    49    52    1
    90    53    55    1
    91    53    52    1
    92    52    54    1
