@<TRIPOS>MOLECULE
tmp/1yc4A00.pdb
 120 110 0 0 0
SMALL
GASTEIGER

@<TRIPOS>ATOM
      1  N         33.6600   33.7510    5.1470 N.3    34  LEU34      -0.1245
      2  CA        33.3200   32.8880    3.9900 C.3    34  LEU34       0.1561
      3  C         32.0520   33.4120    3.3110 C.2    34  LEU34       0.2260
      4  O         31.9020   33.3890    2.0840 O.2    34  LEU34      -0.2867
      5  CB        33.0910   31.4300    4.4540 C.3    34  LEU34       0.0270
      6  CG        34.4120   30.8280    5.0360 C.3    34  LEU34       0.0019
      7  CD1       34.2210   29.3500    5.4910 C.3    34  LEU34       0.0001
      8  CD2       35.5150   30.8790    3.9470 C.3    34  LEU34       0.0001
      9  N         33.0620   36.3490    1.2430 N.3    37  ASN37      -0.1225
     10  CA        33.6900   35.9220    0.0170 C.3    37  ASN37       0.1785
     11  C         32.6120   35.4340   -0.9950 C.2    37  ASN37       0.2597
     12  O         32.6590   35.7610   -2.1530 O.2    37  ASN37      -0.2718
     13  CB        34.6100   34.7580    0.3080 C.3    37  ASN37       0.1169
     14  CG        36.0160   35.2140    0.7840 C.2    37  ASN37       0.2627
     15  OD1       36.2820   36.3880    0.8970 O.2    37  ASN37      -0.2716
     16  ND2       36.9080   34.2430    1.0410 N.am   37  ASN37      -0.0877
     17  N         31.6770   34.6130   -0.5150 N.am   38  SER38      -0.1952
     18  CA        30.6050   34.1270   -1.3670 C.3    38  SER38       0.1924
     19  C         29.8450   35.3200   -1.9490 C.2    38  SER38       0.2314
     20  O         29.5400   35.3500   -3.1600 O.2    38  SER38      -0.2863
     21  CB        29.6070   33.3180   -0.5400 C.3    38  SER38       0.2116
     22  OG        30.2160   32.0760   -0.2760 O.3    38  SER38      -0.2180
     23  N         30.8420   38.3230   -2.4270 N.3    40  ASP40      -0.1225
     24  CA        31.6850   38.9860   -3.4280 C.3    40  ASP40       0.1805
     25  C         31.7020   38.2410   -4.7510 C.2    40  ASP40       0.2597
     26  O         31.6200   38.8700   -5.8230 O.2    40  ASP40      -0.2718
     27  CB        33.1250   39.1540   -2.9280 C.3    40  ASP40       0.1424
     28  CG        33.2380   40.2250   -1.8650 C.2    40  ASP40       0.3668
     29  OD1       32.3030   40.9890   -1.5890 O.co2  40  ASP40      -0.2456
     30  OD2       34.2960   40.3150   -1.2720 O.co2  40  ASP40      -0.2456
     31  N         31.7850   36.8920   -4.7030 N.am   41  ALA41      -0.1979
     32  CA        31.7410   36.0850   -5.9520 C.3    41  ALA41       0.1597
     33  C         30.3800   36.1630   -6.6280 C.2    41  ALA41       0.2287
     34  O         30.3370   36.0650   -7.8650 O.2    41  ALA41      -0.2864
     35  CB        32.0630   34.6210   -5.6870 C.3    41  ALA41       0.0319
     36  N         30.3430   39.3440   -8.4700 N.3    44  LYS44      -0.1245
     37  CA        31.0820   39.2090   -9.7280 C.3    44  LYS44       0.1561
     38  C         30.2880   38.5890  -10.8650 C.2    44  LYS44       0.2260
     39  O         30.2160   39.1670  -11.9480 O.2    44  LYS44      -0.2867
     40  CB        32.3700   38.4250   -9.5040 C.3    44  LYS44       0.0271
     41  CG        33.3640   39.2300   -8.6680 C.3    44  LYS44       0.0035
     42  CD        34.6150   38.3470   -8.3940 C.3    44  LYS44       0.0206
     43  CE        35.5080   38.9380   -7.3590 C.3    44  LYS44       0.1093
     44  NZ        36.2790   40.0800   -7.9370 N.3    44  LYS44      -0.1314
     45  N         28.0950   28.5050   -2.7830 N.3    79  ASP79      -0.1239
     46  CA        27.4820   29.6810   -3.3740 C.3    79  ASP79       0.1674
     47  C         27.4270   29.4220   -4.8430 C.2    79  ASP79       0.2266
     48  O         28.0780   28.4660   -5.3490 O.2    79  ASP79      -0.2867
     49  CB        28.2640   30.9530   -3.0090 C.3    79  ASP79       0.1410
     50  CG        29.6330   30.9830   -3.5840 C.2    79  ASP79       0.3668
     51  OD1       29.7830   31.0190   -4.7930 O.co2  79  ASP79      -0.2456
     52  OD2       30.6130   31.0430   -2.8420 O.co2  79  ASP79      -0.2456
     53  N         30.6590   33.4860   -9.1300 N.3    82  ILE82      -0.1231
     54  CA        31.4060   33.3260  -10.4000 C.3    82  ILE82       0.1692
     55  C         32.3120   32.1080  -10.4740 C.2    82  ILE82       0.2593
     56  O         32.6060   31.6080  -11.5450 O.2    82  ILE82      -0.2718
     57  CB        32.1720   34.5950  -10.7260 C.3    82  ILE82       0.0266
     58  CG1       32.5550   34.6320  -12.2130 C.3    82  ILE82       0.0019
     59  CG2       33.3760   34.7350   -9.8100 C.3    82  ILE82       0.0020
     60  CD1       33.1690   35.9820  -12.5840 C.3    82  ILE82       0.0001
     61  N         32.7440   31.5810   -9.3120 N.am   83  GLY83      -0.1942
     62  CA        33.5910   30.4150   -9.3370 C.3    83  GLY83       0.2014
     63  C         35.0340   30.8250   -9.6380 C.2    83  GLY83       0.2638
     64  O         35.3510   31.9610   -9.8570 O.2    83  GLY83      -0.2714
     65  N         35.9220   29.8500   -9.6630 N.am   84  MET84      -0.1976
     66  CA        37.3140   30.0840   -9.9510 C.3    84  MET84       0.1605
     67  C         37.8370   29.1420  -10.9880 C.2    84  MET84       0.2287
     68  O         37.5290   27.9530  -10.9090 O.2    84  MET84      -0.2864
     69  CB        38.1560   29.8430   -8.7010 C.3    84  MET84       0.0413
     70  CG        37.9640   30.9610   -7.7210 C.3    84  MET84       0.0598
     71  SD        38.8850   30.7140   -6.1680 S.3    84  MET84      -0.1393
     72  CE        37.7480   29.5700   -5.4260 C.3    84  MET84       0.0692
     73  N         44.7150   32.6720   -6.2120 N.3    92  ASN92      -0.1225
     74  CA        43.9520   33.2210   -5.0980 C.3    92  ASN92       0.1785
     75  C         44.2440   32.5840   -3.7570 C.2    92  ASN92       0.2597
     76  O         44.3360   33.2630   -2.7930 O.2    92  ASN92      -0.2718
     77  CB        42.4230   33.0130   -5.2310 C.3    92  ASN92       0.1169
     78  CG        41.7670   33.9480   -6.2120 C.2    92  ASN92       0.2627
     79  OD1       42.4220   34.8110   -6.8340 O.2    92  ASN92      -0.2716
     80  ND2       40.4410   33.7780   -6.3640 N.am   92  ASN92      -0.0877
     81  N         44.3020   31.2610   -3.7100 N.am   93  LEU93      -0.1980
     82  CA        44.4560   30.6190   -2.4280 C.3    93  LEU93       0.1596
     83  C         45.9070   30.2810   -2.1250 C.2    93  LEU93       0.2287
     84  O         46.2530   30.1320   -0.9650 O.2    93  LEU93      -0.2864
     85  CB        43.6180   29.3090   -2.3750 C.3    93  LEU93       0.0297
     86  CG        42.0910   29.4060   -2.6490 C.3    93  LEU93       0.0022
     87  CD1       41.4320   28.0720   -2.3090 C.3    93  LEU93       0.0001
     88  CD2       41.4690   30.5290   -1.8070 C.3    93  LEU93       0.0001
     89  N         39.5670   34.3220    4.0210 N.3   124  PHE124     -0.1241
     90  CA        39.3690   32.8680    3.8150 C.3   124  PHE124      0.1605
     91  C         40.1880   31.9980    4.8120 C.2   124  PHE124      0.2264
     92  O         39.6860   30.9500    5.3190 O.2   124  PHE124     -0.2867
     93  CB        39.8160   32.4950    2.4090 C.3   124  PHE124      0.0534
     94  CG        40.0250   31.0100    2.2130 C.ar  124  PHE124     -0.0203
     95  CD1       38.9190   30.1640    2.1690 C.ar  124  PHE124     -0.0042
     96  CD2       41.3160   30.4800    2.1080 C.ar  124  PHE124     -0.0042
     97  CE1       39.0700   28.7900    2.0260 C.ar  124  PHE124     -0.0003
     98  CE2       41.4990   29.1380    1.9680 C.ar  124  PHE124     -0.0003
     99  CZ        40.3600   28.2650    1.9270 C.ar  124  PHE124     -0.0000
    100  N         37.9580   22.9970   -1.3300 N.3   136  VAL136     -0.1245
    101  CA        37.2260   24.0270   -2.0300 C.3   136  VAL136      0.1561
    102  C         36.9380   23.4460   -3.4040 C.2   136  VAL136      0.2260
    103  O         37.8680   23.0860   -4.1380 O.2   136  VAL136     -0.2867
    104  CB        38.0720   25.3440   -2.1460 C.3   136  VAL136      0.0252
    105  CG1       37.3000   26.3830   -3.0020 C.3   136  VAL136      0.0019
    106  CG2       38.3290   25.9850   -0.7720 C.3   136  VAL136      0.0019
    107  N         31.1560   28.0910   -5.9520 N.3   170  THR170     -0.1218
    108  CA        32.2660   27.5950   -5.1290 C.3   170  THR170      0.1862
    109  C         31.6540   26.9820   -3.8990 C.2   170  THR170      0.2287
    110  O         30.6990   27.5250   -3.3170 O.2   170  THR170     -0.2866
    111  CB        33.1360   28.7640   -4.6690 C.3   170  THR170      0.1770
    112  OG1       33.7550   29.2820   -5.8090 O.3   170  THR170     -0.2211
    113  CG2       34.2660   28.3340   -3.6770 C.3   170  THR170      0.0375
    114  N         32.8200   25.4440   -0.1300 N.3   172  VAL172     -0.1245
    115  CA        33.9170   25.3520    0.8420 C.3   172  VAL172      0.1561
    116  C         33.4890   24.3470    1.8360 C.2   172  VAL172      0.2260
    117  O         32.4760   24.5210    2.5280 O.2   172  VAL172     -0.2867
    118  CB        34.2310   26.7060    1.4840 C.3   172  VAL172      0.0252
    119  CG1       35.3870   26.5500    2.5660 C.3   172  VAL172      0.0019
    120  CG2       34.6880   27.6900    0.3350 C.3   172  VAL172      0.0019
@<TRIPOS>BOND
     1    60    58    1
     2    58    57    1
     3    39    38    2
     4    56    55    2
     5    67    68    2
     6    67    66    1
     7    38    37    1
     8    57    54    1
     9    57    59    1
    10    55    54    1
    11    55    61   am
    12    54    53    1
    13    66    65    1
    14    66    69    1
    15    64    63    2
    16    37    40    1
    17    37    36    1
    18    65    63   am
    19    63    62    1
    20    40    41    1
    21    62    61    1
    22    69    70    1
    23    41    42    1
    24    42    43    1
    25    44    43    1
    26    34    33    2
    27    70    71    1
    28    79    78    2
    29    33    32    1
    30    80    78   am
    31    73    74    1
    32    78    77    1
    33    71    72    1
    34    32    35    1
    35    32    31    1
    36   107   108    1
    37    26    25    2
    38   112   111    1
    39    48    47    2
    40    77    74    1
    41   108   111    1
    42   108   109    1
    43    74    75    1
    44    47    46    1
    45    51    50   ar
    46    25    31   am
    47    25    24    1
    48   111   113    1
    49   103   102    2
    50   109   110    2
    51    75    81   am
    52    75    76    2
    53    81    82    1
    54    50    49    1
    55    50    52   ar
    56    24    27    1
    57    24    23    1
    58   102   101    1
    59    46    49    1
    60    46    45    1
    61    20    19    2
    62   105   104    1
    63    27    28    1
    64    86    85    1
    65    86    87    1
    66    86    88    1
    67    82    85    1
    68    82    83    1
    69    12    11    2
    70   104   101    1
    71   104   106    1
    72    83    84    2
    73   101   100    1
    74    19    18    1
    75    28    29   ar
    76    28    30   ar
    77    18    21    1
    78    18    17    1
    79    11    17   am
    80    11    10    1
    81    21    22    1
    82   114   115    1
    83    10    13    1
    84    10     9    1
    85    13    14    1
    86   120   118    1
    87    14    15    2
    88    14    16   am
    89   115   118    1
    90   115   116    1
    91   118   119    1
    92   116   117    2
    93    99    98   ar
    94    99    97   ar
    95    98    96   ar
    96    97    95   ar
    97     4     3    2
    98    96    94   ar
    99    95    94   ar
   100    94    93    1
   101    93    90    1
   102     3     2    1
   103    90    89    1
   104    90    91    1
   105     8     6    1
   106     2     5    1
   107     2     1    1
   108     5     6    1
   109    91    92    2
   110     6     7    1
