@<TRIPOS>MOLECULE
tmp/1ycdB00.pdb
 108 107 0 0 0
SMALL
GASTEIGER

@<TRIPOS>ATOM
      1  N         16.8480   -1.7710   27.9030 N.3    10  GLY10      -0.1210
      2  CA        18.1310   -2.4080   27.5790 C.3    10  GLY10       0.1956
      3  C         18.0500   -3.4500   26.4650 C.2    10  GLY10       0.2612
      4  O         16.9790   -3.7050   25.9000 O.2    10  GLY10      -0.2717
      5  N         19.2010   -4.0390   26.1590 N.am   11  PHE11      -0.1962
      6  CA        19.3170   -5.1300   25.1910 C.3    11  PHE11       0.1771
      7  C         18.3790   -6.2740   25.5670 C.2    11  PHE11       0.2619
      8  O         18.2920   -6.6660   26.7460 O.2    11  PHE11      -0.2715
      9  CB        20.7690   -5.6000   25.1790 C.3    11  PHE11       0.0574
     10  CG        21.1120   -6.5450   24.0500 C.ar   11  PHE11      -0.0200
     11  CD1       21.0940   -7.9150   24.2640 C.ar   11  PHE11      -0.0042
     12  CD2       21.5050   -6.0520   22.8070 C.ar   11  PHE11      -0.0042
     13  CE1       21.4300   -8.7990   23.2290 C.ar   11  PHE11      -0.0003
     14  CE2       21.8490   -6.9190   21.7620 C.ar   11  PHE11      -0.0003
     15  CZ        21.8190   -8.2990   21.9840 C.ar   11  PHE11      -0.0000
     16  N         17.6670   -6.8030   24.5670 N.am   12  LEU12      -0.1977
     17  CA        16.7280   -7.9280   24.7500 C.3    12  LEU12       0.1596
     18  C         15.5510   -7.6090   25.6800 C.2    12  LEU12       0.2287
     19  O         15.0880   -8.4460   26.4750 O.2    12  LEU12      -0.2864
     20  CB        17.4520   -9.2290   25.1650 C.3    12  LEU12       0.0297
     21  CG        16.9480  -10.5290   24.5070 C.3    12  LEU12       0.0022
     22  CD1       17.1400  -10.5210   23.0010 C.3    12  LEU12       0.0001
     23  CD2       17.6860  -11.7220   25.1360 C.3    12  LEU12       0.0001
     24  N         25.1930  -12.1130   22.1060 N.3    51  PRO51      -0.2102
     25  CA        26.5540  -12.3820   22.5740 C.3    51  PRO51       0.1504
     26  C         26.6310  -13.5390   23.5790 C.2    51  PRO51       0.2575
     27  O         27.7250  -14.0220   23.8770 O.2    51  PRO51      -0.2718
     28  CB        26.9600  -11.0620   23.2350 C.3    51  PRO51       0.0282
     29  CG        25.6780  -10.4890   23.7320 C.3    51  PRO51       0.0208
     30  CD        24.6340  -10.8880   22.7150 C.3    51  PRO51       0.0893
     31  N         25.4790  -13.9750   24.0860 N.am   52  PHE52      -0.1977
     32  CA        25.4040  -15.0700   25.0570 C.3    52  PHE52       0.1639
     33  C         24.6180  -16.2690   24.5080 C.2    52  PHE52       0.2290
     34  O         23.8710  -16.1460   23.5240 O.2    52  PHE52      -0.2864
     35  CB        24.7970  -14.5760   26.3800 C.3    52  PHE52       0.0560
     36  CG        23.6130  -13.6500   26.2060 C.ar   52  PHE52      -0.0200
     37  CD1       22.3360  -14.1610   25.9700 C.ar   52  PHE52      -0.0042
     38  CD2       23.7770  -12.2640   26.2780 C.ar   52  PHE52      -0.0042
     39  CE1       21.2420  -13.3120   25.8060 C.ar   52  PHE52      -0.0003
     40  CE2       22.6850  -11.4050   26.1130 C.ar   52  PHE52      -0.0003
     41  CZ        21.4180  -11.9320   25.8790 C.ar   52  PHE52      -0.0000
     42  N         25.2540   -5.3370   19.3660 N.3    74  HIS74      -0.1241
     43  CA        26.3290   -5.5010   20.3260 C.3    74  HIS74       0.1621
     44  C         27.6880   -5.7410   19.6560 C.2    74  HIS74       0.2264
     45  O         27.7790   -6.4160   18.6350 O.2    74  HIS74      -0.2867
     46  CB        26.0260   -6.6520   21.2850 C.3    74  HIS74       0.0745
     47  CG        27.1020   -6.8610   22.2930 C.ar   74  HIS74       0.0817
     48  ND1       27.3050   -5.9920   23.3410 N.ar   74  HIS74      -0.2268
     49  CD2       28.0890   -7.7850   22.3690 C.ar   74  HIS74       0.1154
     50  CE1       28.3440   -6.4000   24.0490 C.ar   74  HIS74       0.1986
     51  NE2       28.8480   -7.4720   23.4680 N.ar   74  HIS74      -0.2212
     52  N         18.4370    2.3490   30.4740 N.3   106  LEU106     -0.1231
     53  CA        19.0240    1.1570   31.0630 C.3   106  LEU106      0.1693
     54  C         20.0310    0.5810   30.0550 C.2   106  LEU106      0.2593
     55  O         19.6850    0.1420   28.9370 O.2   106  LEU106     -0.2718
     56  CB        17.9570    0.1170   31.4340 C.3   106  LEU106      0.0284
     57  CG        18.4610   -1.2590   31.9280 C.3   106  LEU106      0.0019
     58  CD1       19.2890   -1.1510   33.2290 C.3   106  LEU106      0.0001
     59  CD2       17.3160   -2.2800   32.1110 C.3   106  LEU106      0.0001
     60  N         21.4260    0.2680   30.6440 N.am  107  SER107     -0.1938
     61  CA        22.4470   -0.4870   29.9620 C.3   107  SER107      0.2055
     62  C         22.6600    0.1040   28.5820 C.2   107  SER107      0.2642
     63  O         22.9360    1.2850   28.3960 O.2   107  SER107     -0.2714
     64  CB        21.9540   -1.9380   29.9500 C.3   107  SER107      0.2130
     65  OG        22.9500   -2.7590   29.3630 O.3   107  SER107     -0.2179
     66  N         22.2600   -0.6700   27.2190 N.am  108  GLN108     -0.1976
     67  CA        22.4210    0.0940   25.9280 C.3   108  GLN108      0.1601
     68  C         21.6320    1.3940   25.9230 C.2   108  GLN108      0.2287
     69  O         22.0790    2.3980   25.3550 O.2   108  GLN108     -0.2864
     70  CB        21.8950   -0.7450   24.7750 C.3   108  GLN108      0.0394
     71  CG        22.8280   -1.8350   24.3470 C.3   108  GLN108      0.0908
     72  CD        22.4470   -2.3370   22.9730 C.2   108  GLN108      0.2608
     73  OE1       21.3790   -1.9930   22.4560 O.2   108  GLN108     -0.2717
     74  NE2       23.3080   -3.1440   22.3740 N.am  108  GLN108     -0.0878
     75  N         27.2490    2.9210   30.4670 N.3   139  TYR139     -0.1241
     76  CA        28.6570    2.7810   30.1340 C.3   139  TYR139      0.1605
     77  C         28.9010    3.6090   28.8810 C.2   139  TYR139      0.2264
     78  O         27.9500    3.9880   28.1810 O.2   139  TYR139     -0.2867
     79  CB        29.0360    1.3110   29.8700 C.3   139  TYR139      0.0534
     80  CG        28.1910    0.6210   28.8100 C.ar  139  TYR139     -0.0201
     81  CD1       28.6080    0.5810   27.4700 C.ar  139  TYR139     -0.0009
     82  CD2       26.9820    0.0120   29.1470 C.ar  139  TYR139     -0.0009
     83  CE1       27.8300   -0.0530   26.4910 C.ar  139  TYR139      0.0417
     84  CE2       26.2090   -0.6300   28.1880 C.ar  139  TYR139      0.0417
     85  CZ        26.6350   -0.6460   26.8630 C.ar  139  TYR139      0.1957
     86  OH        25.8480   -1.2650   25.9240 O.3   139  TYR139     -0.2866
     87  N         27.3830   -8.0970   34.0580 N.3   182  ALA182     -0.1231
     88  CA        27.1250   -7.8060   32.6520 C.3   182  ALA182      0.1694
     89  C         27.7310   -6.4660   32.2950 C.2   182  ALA182      0.2591
     90  O         28.3970   -6.3340   31.2470 O.2   182  ALA182     -0.2718
     91  CB        25.6270   -7.7990   32.3470 C.3   182  ALA182      0.0304
     92  N         27.4670   -5.4770   33.1540 N.am  183  VAL183     -0.1980
     93  CA        28.0980   -4.1600   33.0620 C.3   183  VAL183      0.1595
     94  C         28.7210   -3.8720   34.4260 C.2   183  VAL183      0.2287
     95  O         28.0580   -3.2950   35.3090 O.2   183  VAL183     -0.2864
     96  CB        27.0830   -3.0370   32.6820 C.3   183  VAL183      0.0276
     97  CG1       27.8110   -1.6990   32.5500 C.3   183  VAL183      0.0022
     98  CG2       26.3560   -3.3690   31.3780 C.3   183  VAL183      0.0022
     99  N         22.5090   -6.8130   37.4860 N.3   215  HIS215     -0.1241
    100  CA        22.1010   -6.0710   36.2890 C.3   215  HIS215      0.1621
    101  C         20.5820   -5.9780   36.2480 C.2   215  HIS215      0.2264
    102  O         19.9040   -6.7870   35.6100 O.2   215  HIS215     -0.2867
    103  CB        22.6520   -6.7290   35.0150 C.3   215  HIS215      0.0745
    104  CG        22.5790   -5.8450   33.8060 C.ar  215  HIS215      0.0817
    105  ND1       23.3990   -4.7510   33.6320 N.ar  215  HIS215     -0.2268
    106  CD2       21.7900   -5.8990   32.7040 C.ar  215  HIS215      0.1154
    107  CE1       23.1110   -4.1560   32.4880 C.ar  215  HIS215      0.1986
    108  NE2       22.1420   -4.8350   31.9020 N.ar  215  HIS215     -0.2212
@<TRIPOS>BOND
     1    45    44    2
     2    42    43    1
     3    44    43    1
     4    43    46    1
     5    46    47    1
     6    14    15   ar
     7    14    12   ar
     8    15    13   ar
     9    24    25    1
    10    24    30    1
    11    47    49   ar
    12    47    48   ar
    13    49    51   ar
    14    74    72   am
    15    73    72    2
    16    25    28    1
    17    25    26    1
    18    30    29    1
    19    12    10   ar
    20    72    71    1
    21    22    21    1
    22    13    11   ar
    23    28    29    1
    24    48    50   ar
    25    51    50   ar
    26    34    33    2
    27    26    27    2
    28    26    31   am
    29    10    11   ar
    30    10     9    1
    31    31    32    1
    32    71    70    1
    33    21    23    1
    34    21    20    1
    35    33    32    1
    36    16    17    1
    37    16     7   am
    38    17    20    1
    39    17    18    1
    40    70    67    1
    41    32    35    1
    42     9     6    1
    43     6     7    1
    44     6     5    1
    45    69    68    2
    46     7     8    2
    47    18    19    2
    48    39    41   ar
    49    39    37   ar
    50    41    40   ar
    51     4     3    2
    52    68    67    1
    53    86    85    1
    54    67    66    1
    55    37    36   ar
    56    40    38   ar
    57     5     3   am
    58    36    38   ar
    59    36    35    1
    60     3     2    1
    61    83    85   ar
    62    83    81   ar
    63    85    84   ar
    64    66    62   am
    65    81    80   ar
    66     2     1    1
    67    78    77    2
    68    84    82   ar
    69    63    62    2
    70    62    61    1
    71    80    82   ar
    72    80    79    1
    73    77    76    1
    74    55    54    2
    75    65    64    1
    76    79    76    1
    77    64    61    1
    78    61    60    1
    79    54    60   am
    80    54    53    1
    81    76    75    1
    82    52    53    1
    83    53    56    1
    84    90    89    2
    85    98    96    1
    86    56    57    1
    87   108   107   ar
    88   108   106   ar
    89    57    59    1
    90    57    58    1
    91    89    88    1
    92    89    92   am
    93    91    88    1
    94   107   105   ar
    95    97    96    1
    96    88    87    1
    97    96    93    1
    98   106   104   ar
    99    93    92    1
   100    93    94    1
   101   105   104   ar
   102   104   103    1
   103    94    95    2
   104   103   100    1
   105   102   101    2
   106   101   100    1
   107   100    99    1
