@<TRIPOS>MOLECULE
tmp/1ychB01.pdb
 137 140 0 0 0
SMALL
GASTEIGER

@<TRIPOS>ATOM
      1  N        104.8050   48.7930 -170.0420 N.3   260  THR260     -0.1203
      2  CA       104.9060   47.4290 -169.6010 C.3   260  THR260      0.1994
      3  C        105.7550   47.3900 -168.3480 C.2   260  THR260      0.2618
      4  O        106.4110   48.3630 -168.0090 O.2   260  THR260     -0.2717
      5  CB       105.5580   46.6150 -170.8050 C.3   260  THR260      0.1784
      6  OG1      106.0780   45.3600 -170.3760 O.3   260  THR260     -0.2211
      7  CG2      106.6760   47.4040 -171.4280 C.3   260  THR260      0.0376
      8  N        105.7070   46.2670 -167.6530 N.am  261  MET261     -0.1965
      9  CA       106.4960   46.0700 -166.4750 C.3   261  MET261      0.1736
     10  C        107.5200   45.0070 -166.7820 C.2   261  MET261      0.2616
     11  O        108.6700   45.1220 -166.3590 O.2   261  MET261     -0.2715
     12  CB       105.6170   45.6160 -165.3420 C.3   261  MET261      0.0427
     13  CG       104.7150   46.6930 -164.8430 C.3   261  MET261      0.0599
     14  SD       103.5910   45.9900 -163.6410 S.3   261  MET261     -0.1393
     15  CE       104.7460   45.1940 -162.5780 C.3   261  MET261      0.0692
     16  N        107.1070   43.9750 -167.5220 N.am  262  TRP262     -0.1974
     17  CA       108.0000   42.8700 -167.8610 C.3   262  TRP262      0.1640
     18  C        108.1560   42.5540 -169.3340 C.2   262  TRP262      0.2290
     19  O        108.6280   41.4930 -169.6940 O.2   262  TRP262     -0.2864
     20  CB       107.5900   41.6230 -167.0930 C.3   262  TRP262      0.0576
     21  CG       107.6380   41.8720 -165.6270 C.ar  262  TRP262      0.0006
     22  CD1      106.5760   41.9150 -164.7670 C.ar  262  TRP262      0.0946
     23  CD2      108.8090   42.1350 -164.8300 C.ar  262  TRP262      0.0152
     24  NE1      107.0100   42.1780 -163.4870 N.ar  262  TRP262     -0.2442
     25  CE2      108.3720   42.3150 -163.4960 C.ar  262  TRP262      0.0810
     26  CE3      110.1830   42.2300 -165.1130 C.ar  262  TRP262      0.0012
     27  CZ2      109.2570   42.5790 -162.4440 C.ar  262  TRP262      0.0191
     28  CZ3      111.0680   42.4900 -164.0580 C.ar  262  TRP262      0.0001
     29  CH2      110.5950   42.6600 -162.7410 C.ar  262  TRP262      0.0015
     30  N        105.9540   41.8950 -171.9450 N.3   264  SER264     -0.1202
     31  CA       104.9770   41.1880 -172.7720 C.3   264  SER264      0.2020
     32  C        104.1060   42.1580 -173.5710 C.2   264  SER264      0.2619
     33  O        103.8640   41.9550 -174.7540 O.2   264  SER264     -0.2717
     34  CB       104.0750   40.2970 -171.9160 C.3   264  SER264      0.2103
     35  OG       104.7970   39.5470 -170.9510 O.3   264  SER264     -0.2182
     36  N        103.6220   43.2100 -172.9340 N.am  265  THR265     -0.1952
     37  CA       102.7740   44.1620 -173.6240 C.3   265  THR265      0.1897
     38  C        103.5850   44.8320 -174.7030 C.2   265  THR265      0.2313
     39  O        103.0470   45.2550 -175.7290 O.2   265  THR265     -0.2863
     40  CB       102.2460   45.2060 -172.6340 C.3   265  THR265      0.1794
     41  OG1      101.5890   44.5180 -171.5810 O.3   265  THR265     -0.2208
     42  CG2      101.2830   46.1920 -173.2890 C.3   265  THR265      0.0378
     43  N         99.4590   46.3690 -169.2270 N.3   311  PRO311     -0.2102
     44  CA        99.2430   45.1120 -168.5070 C.3   311  PRO311      0.1504
     45  C         98.2460   45.5050 -167.3890 C.2   311  PRO311      0.2576
     46  O         97.8030   46.6580 -167.3140 O.2   311  PRO311     -0.2718
     47  CB       100.6010   44.8130 -167.8780 C.3   311  PRO311      0.0282
     48  CG       101.5120   45.8840 -168.3400 C.3   311  PRO311      0.0208
     49  CD       100.6580   47.0410 -168.7270 C.3   311  PRO311      0.0893
     50  N         97.8820   44.5820 -166.5100 N.am  312  THR312     -0.1939
     51  CA        96.9840   45.0020 -165.4520 C.3   312  THR312      0.2028
     52  C         97.7160   44.8540 -164.1140 C.2   312  THR312      0.2642
     53  O         98.3820   43.8470 -163.8640 O.2   312  THR312     -0.2714
     54  CB        95.6030   44.2210 -165.4650 C.3   312  THR312      0.1808
     55  OG1       95.6850   43.0510 -164.6430 O.3   312  THR312     -0.2208
     56  CG2       95.2070   43.8320 -166.8960 C.3   312  THR312      0.0379
     57  N         97.6590   45.9050 -163.2980 N.am  313  ILE313     -0.1963
     58  CA        98.2720   45.9190 -161.9540 C.3   313  ILE313      0.1727
     59  C         97.0640   46.2050 -161.0730 C.2   313  ILE313      0.2616
     60  O         96.2340   47.0690 -161.4280 O.2   313  ILE313     -0.2715
     61  CB        99.2450   47.1370 -161.6750 C.3   313  ILE313      0.0290
     62  CG1       99.6440   47.8050 -162.9670 C.3   313  ILE313      0.0022
     63  CG2      100.4640   46.7370 -160.8480 C.3   313  ILE313      0.0023
     64  CD1       98.8190   49.0280 -163.1650 C.3   313  ILE313      0.0001
     65  N         96.9730   45.4970 -159.9420 N.am  314  ASN314     -0.1958
     66  CA        95.8600   45.6690 -159.0050 C.3   314  ASN314      0.1819
     67  C         94.5170   45.8870 -159.7290 C.2   314  ASN314      0.2621
     68  O         93.8170   46.8660 -159.4590 O.2   314  ASN314     -0.2715
     69  CB        96.1230   46.8630 -158.0930 C.3   314  ASN314      0.1195
     70  CG        97.4580   46.7850 -157.4020 C.2   314  ASN314      0.2630
     71  OD1       97.8240   45.7410 -156.8540 O.2   314  ASN314     -0.2716
     72  ND2       98.1970   47.9010 -157.4080 N.am  314  ASN314     -0.0877
     73  N         94.1850   44.9840 -160.6570 N.am  315  ASN315     -0.1972
     74  CA        92.9570   45.0130 -161.4600 C.3   315  ASN315      0.1688
     75  C         92.6730   46.3180 -162.1950 C.2   315  ASN315      0.2292
     76  O         91.5580   46.5410 -162.6800 O.2   315  ASN315     -0.2864
     77  CB        91.7670   44.5820 -160.5980 C.3   315  ASN315      0.1181
     78  CG        92.0300   43.2310 -159.8890 C.2   315  ASN315      0.2629
     79  OD1       92.1700   42.1740 -160.5520 O.2   315  ASN315     -0.2716
     80  ND2       92.1250   43.2590 -158.5490 N.am  315  ASN315     -0.0877
     81  N         98.8430   42.4770 -171.4830 N.3   343  ALA343     -0.1231
     82  CA        98.9550   41.1870 -170.8330 C.3   343  ALA343      0.1694
     83  C         98.2810   41.2560 -169.4790 C.2   343  ALA343      0.2592
     84  O         97.7350   42.3050 -169.1100 O.2   343  ALA343     -0.2718
     85  CB       100.4240   40.8100 -170.6540 C.3   343  ALA343      0.0304
     86  N         98.3250   40.1290 -168.7550 N.am  344  TYR344     -0.1962
     87  CA        97.7490   39.9990 -167.4190 C.3   344  TYR344      0.1771
     88  C         98.2140   38.6590 -166.8210 C.2   344  TYR344      0.2620
     89  O         98.6400   37.7730 -167.5440 O.2   344  TYR344     -0.2715
     90  CB        96.2080   40.0950 -167.4880 C.3   344  TYR344      0.0574
     91  CG        95.5150   38.9040 -168.1020 C.ar  344  TYR344     -0.0198
     92  CD1       95.3640   37.7110 -167.3750 C.ar  344  TYR344     -0.0009
     93  CD2       95.1030   38.9240 -169.4400 C.ar  344  TYR344     -0.0009
     94  CE1       94.8410   36.5650 -167.9720 C.ar  344  TYR344      0.0417
     95  CE2       94.5720   37.7760 -170.0550 C.ar  344  TYR344      0.0417
     96  CZ        94.4600   36.6080 -169.3060 C.ar  344  TYR344      0.1957
     97  OH        94.0460   35.4640 -169.9020 O.3   344  TYR344     -0.2866
     98  N         98.1490   38.5210 -165.5030 N.am  345  GLY345     -0.1940
     99  CA        98.5970   37.2950 -164.8690 C.3   345  GLY345      0.2014
    100  C         97.4930   36.3400 -164.4300 C.2   345  GLY345      0.2639
    101  O         97.6900   35.1300 -164.4420 O.2   345  GLY345     -0.2714
    102  N         96.3290   36.8470 -164.0380 N.am  346  TRP346     -0.1959
    103  CA        95.2650   35.9400 -163.6090 C.3   346  TRP346      0.1771
    104  C         93.8440   36.4370 -163.9250 C.2   346  TRP346      0.2620
    105  O         93.1630   35.8680 -164.7870 O.2   346  TRP346     -0.2715
    106  CB        95.4280   35.6190 -162.1140 C.3   346  TRP346      0.0590
    107  CG        95.4870   36.8290 -161.2540 C.ar  346  TRP346      0.0006
    108  CD1       94.4310   37.5760 -160.7950 C.ar  346  TRP346      0.0946
    109  CD2       96.6700   37.4590 -160.7460 C.ar  346  TRP346      0.0152
    110  NE1       94.8860   38.6370 -160.0270 N.ar  346  TRP346     -0.2442
    111  CE2       96.2530   38.5890 -159.9770 C.ar  346  TRP346      0.0810
    112  CE3       98.0410   37.1850 -160.8620 C.ar  346  TRP346      0.0012
    113  CZ2       97.1590   39.4340 -159.3280 C.ar  346  TRP346      0.0191
    114  CZ3       98.9500   38.0440 -160.2080 C.ar  346  TRP346      0.0001
    115  CH2       98.4950   39.1520 -159.4520 C.ar  346  TRP346      0.0015
    116  N         93.3990   37.4960 -163.2580 N.am  347  GLY347     -0.1940
    117  CA        92.0670   37.9920 -163.5220 C.3   347  GLY347      0.2014
    118  C         91.9610   39.0030 -164.6470 C.2   347  GLY347      0.2639
    119  O         90.9590   39.0100 -165.3520 O.2   347  GLY347     -0.2714
    120  N         92.9670   39.8550 -164.8320 N.am  348  GLY348     -0.1954
    121  CA        92.8690   40.8650 -165.8710 C.3   348  GLY348      0.1869
    122  C         92.1200   42.0560 -165.2930 C.2   348  GLY348      0.2309
    123  O         91.8530   42.0840 -164.0780 O.2   348  GLY348     -0.2863
    124  N        100.4630   36.1740 -169.0550 N.3   375  TRP375     -0.1241
    125  CA       101.8700   36.0480 -168.6820 C.3   375  TRP375      0.1605
    126  C        102.7430   36.4500 -169.8640 C.2   375  TRP375      0.2264
    127  O        103.1260   37.6330 -169.9750 O.2   375  TRP375     -0.2867
    128  CB       102.1820   34.6270 -168.2860 C.3   375  TRP375      0.0550
    129  CG       101.5450   34.1440 -166.9800 C.ar  375  TRP375      0.0003
    130  CD1      100.9810   32.8990 -166.7370 C.ar  375  TRP375      0.0946
    131  CD2      101.5650   34.8150 -165.6980 C.ar  375  TRP375      0.0152
    132  NE1      100.6720   32.7670 -165.3930 N.ar  375  TRP375     -0.2442
    133  CE2      101.0160   33.9200 -164.7340 C.ar  375  TRP375      0.0810
    134  CE3      102.0030   36.0800 -165.2660 C.ar  375  TRP375      0.0012
    135  CZ2      100.8900   34.2600 -163.3620 C.ar  375  TRP375      0.0191
    136  CZ3      101.8740   36.4090 -163.8820 C.ar  375  TRP375      0.0001
    137  CH2      101.3220   35.4970 -162.9610 C.ar  375  TRP375      0.0015
@<TRIPOS>BOND
     1    39    38    2
     2    33    32    2
     3    38    37    1
     4    37    36    1
     5    37    40    1
     6    32    36   am
     7    32    31    1
     8    42    40    1
     9    31    30    1
    10    31    34    1
    11    40    41    1
    12    34    35    1
    13    81    82    1
    14     7     5    1
    15    82    85    1
    16    82    83    1
    17     5     6    1
    18     5     2    1
    19    95    93   ar
    20    95    96   ar
    21     1     2    1
    22   127   126    2
    23    97    96    1
    24   126   125    1
    25    19    18    2
    26     2     3    1
    27    83    84    2
    28    83    86   am
    29    93    91   ar
    30    18    17    1
    31    96    94   ar
    32    43    49    1
    33    43    44    1
    34   124   125    1
    35    86    87    1
    36    49    48    1
    37   125   128    1
    38    44    47    1
    39    44    45    1
    40     3     4    2
    41     3     8   am
    42    48    47    1
    43   128   129    1
    44    91    90    1
    45    91    92   ar
    46    94    92   ar
    47    17    16    1
    48    17    20    1
    49     8     9    1
    50    89    88    2
    51    16    10   am
    52    90    87    1
    53    87    88    1
    54    45    46    2
    55    45    50   am
    56    20    21    1
    57   129   130   ar
    58   129   131   ar
    59    56    54    1
    60    88    98   am
    61    10     9    1
    62    10    11    2
    63   130   132   ar
    64    50    51    1
    65     9    12    1
    66   121   122    1
    67   121   120    1
    68   131   134   ar
    69   131   133   ar
    70    21    23   ar
    71    21    22   ar
    72    98    99    1
    73    54    51    1
    74    54    55    1
    75    51    52    1
    76   132   133   ar
    77   119   118    2
    78    12    13    1
    79   122   123    2
    80   134   136   ar
    81    26    23   ar
    82    26    28   ar
    83    99   100    1
    84    13    14    1
    85   120   118   am
    86    23    25   ar
    87   105   104    2
    88    22    24   ar
    89   133   135   ar
    90   118   117    1
    91   101   100    2
    92   100   102   am
    93    52    53    2
    94    52    57   am
    95    28    29   ar
    96   102   103    1
    97   104   103    1
    98   104   116   am
    99   136   137   ar
   100    14    15    1
   101   103   106    1
   102   117   116    1
   103    25    24   ar
   104    25    27   ar
   105   135   137   ar
   106    57    58    1
   107    64    62    1
   108    62    61    1
   109    29    27   ar
   110    76    75    2
   111    75    74    1
   112   106   107    1
   113    58    61    1
   114    58    59    1
   115    61    63    1
   116    74    73    1
   117    74    77    1
   118    60    59    2
   119   107   108   ar
   120   107   109   ar
   121    59    65   am
   122   112   109   ar
   123   112   114   ar
   124   108   110   ar
   125   109   111   ar
   126    73    67   am
   127    77    78    1
   128    79    78    2
   129   114   115   ar
   130   110   111   ar
   131   111   113   ar
   132    65    66    1
   133    78    80   am
   134    67    68    2
   135    67    66    1
   136   115   113   ar
   137    66    69    1
   138    69    70    1
   139    72    70   am
   140    70    71    2
