@<TRIPOS>MOLECULE
tmp/1yciA00.pdb
 142 134 0 0 0
SMALL
GASTEIGER

@<TRIPOS>ATOM
      1  N         18.8400   30.6530   38.6340 N.3    89  TYR89      -0.1241
      2  CA        19.9850   29.7580   38.7540 C.3    89  TYR89       0.1605
      3  C         21.0160   30.3970   39.7040 C.2    89  TYR89       0.2264
      4  O         21.6110   31.4230   39.3870 O.2    89  TYR89      -0.2867
      5  CB        20.6230   29.5180   37.3760 C.3    89  TYR89       0.0534
      6  CG        21.9770   28.8240   37.4370 C.ar   89  TYR89      -0.0201
      7  CD1       22.0850   27.4890   37.8310 C.ar   89  TYR89      -0.0009
      8  CD2       23.1590   29.5210   37.1590 C.ar   89  TYR89      -0.0009
      9  CE1       23.3290   26.8700   37.9530 C.ar   89  TYR89       0.0417
     10  CE2       24.4090   28.9110   37.2820 C.ar   89  TYR89       0.0417
     11  CZ        24.4850   27.5840   37.6820 C.ar   89  TYR89       0.1957
     12  OH        25.7090   26.9690   37.8380 O.3    89  TYR89      -0.2866
     13  N         11.6430   21.9100   36.8050 N.3   132  TYR132     -0.1241
     14  CA        12.6110   21.8060   35.7120 C.3   132  TYR132      0.1605
     15  C         13.6740   20.8080   36.1350 C.2   132  TYR132      0.2264
     16  O         14.3560   21.0240   37.1280 O.2   132  TYR132     -0.2867
     17  CB        13.2780   23.1600   35.4410 C.3   132  TYR132      0.0534
     18  CG        13.6870   23.3850   34.0000 C.ar  132  TYR132     -0.0201
     19  CD1       14.3460   22.3960   33.2720 C.ar  132  TYR132     -0.0009
     20  CD2       13.4030   24.5920   33.3630 C.ar  132  TYR132     -0.0009
     21  CE1       14.7080   22.6030   31.9380 C.ar  132  TYR132      0.0417
     22  CE2       13.7610   24.8130   32.0390 C.ar  132  TYR132      0.0417
     23  CZ        14.4120   23.8160   31.3310 C.ar  132  TYR132      0.1957
     24  OH        14.7690   24.0450   30.0240 O.3   132  TYR132     -0.2866
     25  N         17.1690   19.0420   35.6600 N.3   134  GLN134     -0.1245
     26  CA        18.4500   19.2600   35.0260 C.3   134  GLN134      0.1566
     27  C         19.4130   18.2930   35.6780 C.2   134  GLN134      0.2260
     28  O         19.8190   18.5160   36.8010 O.2   134  GLN134     -0.2867
     29  CB        18.8900   20.6990   35.2810 C.3   134  GLN134      0.0367
     30  CG        17.8710   21.7340   34.8220 C.3   134  GLN134      0.0905
     31  CD        18.2510   23.1580   35.1940 C.2   134  GLN134      0.2608
     32  OE1       17.5510   24.1120   34.8390 O.2   134  GLN134     -0.2717
     33  NE2       19.3530   23.3100   35.9210 N.am  134  GLN134     -0.0878
     34  N         23.7440   17.3920   29.7870 N.3   173  LEU173     -0.1245
     35  CA        22.6310   17.5320   30.7160 C.3   173  LEU173      0.1561
     36  C         21.3000   17.1830   30.0890 C.2   173  LEU173      0.2260
     37  O         21.0270   17.5490   28.9430 O.2   173  LEU173     -0.2867
     38  CB        22.5350   18.9550   31.2430 C.3   173  LEU173      0.0270
     39  CG        23.2870   19.2960   32.5120 C.3   173  LEU173      0.0019
     40  CD1       24.7820   19.0610   32.3300 C.3   173  LEU173      0.0001
     41  CD2       22.9700   20.7460   32.8530 C.3   173  LEU173      0.0001
     42  N         17.5670   17.9360   30.0440 N.3   175  LEU175     -0.1245
     43  CA        16.7050   19.0070   30.4950 C.3   175  LEU175      0.1561
     44  C         15.2660   18.7410   30.1330 C.2   175  LEU175      0.2260
     45  O         14.9210   18.6780   28.9590 O.2   175  LEU175     -0.2867
     46  CB        17.1450   20.3260   29.8770 C.3   175  LEU175      0.0270
     47  CG        18.6330   20.6290   29.9930 C.3   175  LEU175      0.0019
     48  CD1       18.9880   21.8050   29.1120 C.3   175  LEU175      0.0001
     49  CD2       18.9700   20.9200   31.4370 C.3   175  LEU175      0.0001
     50  N         14.4180   30.3820   31.3160 N.3   183  THR183     -0.1218
     51  CA        15.7950   30.3830   31.8250 C.3   183  THR183      0.1862
     52  C         16.3630   31.7580   31.4410 C.2   183  THR183      0.2287
     53  O         16.7670   31.9630   30.2920 O.2   183  THR183     -0.2866
     54  CB        16.6650   29.2640   31.1680 C.3   183  THR183      0.1770
     55  OG1       16.3100   27.9970   31.7230 O.3   183  THR183     -0.2211
     56  CG2       18.1330   29.4960   31.4250 C.3   183  THR183      0.0375
     57  N         21.9400   34.6720   30.2060 N.3   186  HIS186     -0.1241
     58  CA        23.2340   34.3960   30.8260 C.3   186  HIS186      0.1621
     59  C         24.1760   33.8230   29.7740 C.2   186  HIS186      0.2264
     60  O         23.7920   33.6240   28.6280 O.2   186  HIS186     -0.2867
     61  CB        23.0770   33.3390   31.9050 C.3   186  HIS186      0.0745
     62  CG        22.8180   31.9710   31.3690 C.ar  186  HIS186      0.0817
     63  ND1       21.5590   31.5400   30.9880 N.ar  186  HIS186     -0.2268
     64  CD2       23.6470   30.9180   31.1560 C.ar  186  HIS186      0.1154
     65  CE1       21.6300   30.2810   30.5700 C.ar  186  HIS186      0.1986
     66  NE2       22.8840   29.8820   30.6660 N.ar  186  HIS186     -0.2212
     67  N         27.6900   31.0280   29.0590 N.3   188  ASP188     -0.1239
     68  CA        28.4920   29.9410   29.6070 C.3   188  ASP188      0.1674
     69  C         29.8990   30.0000   29.0170 C.2   188  ASP188      0.2266
     70  O         30.1010   30.4580   27.8890 O.2   188  ASP188     -0.2867
     71  CB        27.8530   28.5730   29.3010 C.3   188  ASP188      0.1410
     72  CG        26.4620   28.3960   29.9290 C.2   188  ASP188      0.3668
     73  OD1       26.3180   28.5400   31.1690 O.co2 188  ASP188     -0.2456
     74  OD2       25.5080   28.0960   29.1760 O.co2 188  ASP188     -0.2456
     75  N         28.6390   24.9720   23.2460 N.3   192  ASN192     -0.1240
     76  CA        27.4460   24.1570   23.4710 C.3   192  ASN192      0.1653
     77  C         26.6700   23.7640   22.2130 C.2   192  ASN192      0.2266
     78  O         26.5270   24.5540   21.2730 O.2   192  ASN192     -0.2867
     79  CB        26.5310   24.8950   24.4720 C.3   192  ASN192      0.1155
     80  CG        25.1940   24.1900   24.7210 C.2   192  ASN192      0.2627
     81  OD1       25.0270   22.9980   24.4510 O.2   192  ASN192     -0.2716
     82  ND2       24.2370   24.9270   25.2830 N.am  192  ASN192     -0.0877
     83  N         23.0520   22.4040   21.5940 N.3   194  PHE194     -0.1241
     84  CA        21.7200   22.2530   22.1850 C.3   194  PHE194      0.1605
     85  C         20.9030   21.3130   21.2980 C.2   194  PHE194      0.2264
     86  O         20.4600   21.7210   20.2290 O.2   194  PHE194     -0.2867
     87  CB        21.0810   23.6430   22.2160 C.3   194  PHE194      0.0534
     88  CG        19.9540   23.8080   23.2010 C.ar  194  PHE194     -0.0203
     89  CD1       18.6210   23.8250   22.7770 C.ar  194  PHE194     -0.0042
     90  CD2       20.2280   24.0550   24.5380 C.ar  194  PHE194     -0.0042
     91  CE1       17.5750   24.0980   23.6770 C.ar  194  PHE194     -0.0003
     92  CE2       19.1990   24.3330   25.4520 C.ar  194  PHE194     -0.0003
     93  CZ        17.8700   24.3570   25.0230 C.ar  194  PHE194     -0.0000
     94  N         11.4070   25.0470   22.0050 N.3   201  LYS201     -0.1245
     95  CA        12.0730   26.0600   22.8230 C.3   201  LYS201      0.1561
     96  C         12.5180   27.2730   22.0000 C.2   201  LYS201      0.2260
     97  O         13.1560   27.1420   20.9450 O.2   201  LYS201     -0.2867
     98  CB        13.2970   25.4700   23.5210 C.3   201  LYS201      0.0271
     99  CG        13.0120   24.7940   24.8400 C.3   201  LYS201      0.0035
    100  CD        14.3090   24.2980   25.3980 C.3   201  LYS201      0.0206
    101  CE        14.1490   23.8660   26.8120 C.3   201  LYS201      0.1093
    102  NZ        15.4210   23.2550   27.2340 N.3   201  LYS201     -0.1314
    103  N         22.3380   33.8770   26.2900 N.3   266  HIS266     -0.1241
    104  CA        21.1520   33.1680   25.8230 C.3   266  HIS266      0.1621
    105  C         19.9850   33.0900   26.8030 C.2   266  HIS266      0.2264
    106  O         20.1340   32.7460   27.9730 O.2   266  HIS266     -0.2867
    107  CB        21.4880   31.7540   25.3120 C.3   266  HIS266      0.0745
    108  CG        22.3920   30.9680   26.2060 C.ar  266  HIS266      0.0817
    109  ND1       23.7460   31.2060   26.2900 N.ar  266  HIS266     -0.2268
    110  CD2       22.1480   29.9040   27.0100 C.ar  266  HIS266      0.1154
    111  CE1       24.3000   30.3210   27.1040 C.ar  266  HIS266      0.1986
    112  NE2       23.3510   29.5150   27.5550 N.ar  266  HIS266     -0.2212
    113  N         16.3950   31.2410   27.2340 N.3   268  ILE268     -0.1245
    114  CA        15.6520   30.0930   26.6990 C.3   268  ILE268      0.1561
    115  C         14.2930   29.9230   27.3430 C.2   268  ILE268      0.2260
    116  O         14.1700   29.8850   28.5560 O.2   268  ILE268     -0.2867
    117  CB        16.4230   28.7990   26.9080 C.3   268  ILE268      0.0252
    118  CG1       17.6690   28.8270   26.0310 C.3   268  ILE268      0.0019
    119  CG2       15.5470   27.6000   26.5810 C.3   268  ILE268      0.0019
    120  CD1       18.5900   27.7110   26.2880 C.3   268  ILE268      0.0001
    121  N         22.0240   18.8450   26.1330 N.3   281  ASN281     -0.1240
    122  CA        23.1190   19.6820   25.6450 C.3   281  ASN281      0.1653
    123  C         24.4600   18.9620   25.6930 C.2   281  ASN281      0.2266
    124  O         24.5990   17.9550   26.3790 O.2   281  ASN281     -0.2867
    125  CB        23.2050   21.0120   26.4260 C.3   281  ASN281      0.1155
    126  CG        23.6030   20.8300   27.8910 C.2   281  ASN281      0.2627
    127  OD1       24.5950   20.1740   28.2120 O.2   281  ASN281     -0.2716
    128  ND2       22.8290   21.4310   28.7880 N.am  281  ASN281     -0.0877
    129  N         28.3680   20.0340   26.3510 N.3   283  TRP283     -0.1241
    130  CA        29.3160   21.0900   26.6800 C.3   283  TRP283      0.1605
    131  C         30.7630   20.6790   26.4910 C.2   283  TRP283      0.2264
    132  O         31.2080   19.7010   27.0770 O.2   283  TRP283     -0.2867
    133  CB        29.1250   21.5540   28.1240 C.3   283  TRP283      0.0550
    134  CG        28.0700   22.5920   28.3030 C.ar  283  TRP283      0.0003
    135  CD1       27.6300   23.4690   27.3690 C.ar  283  TRP283      0.0946
    136  CD2       27.4000   22.9240   29.5260 C.ar  283  TRP283      0.0152
    137  NE1       26.7280   24.3440   27.9230 N.ar  283  TRP283     -0.2442
    138  CE2       26.5680   24.0320   29.2480 C.ar  283  TRP283      0.0810
    139  CE3       27.4250   22.4030   30.8210 C.ar  283  TRP283      0.0012
    140  CZ2       25.7680   24.6320   30.2220 C.ar  283  TRP283      0.0191
    141  CZ3       26.6240   23.0010   31.8020 C.ar  283  TRP283      0.0001
    142  CH2       25.8080   24.1060   31.4910 C.ar  283  TRP283      0.0015
@<TRIPOS>BOND
     1    86    85    2
     2    97    96    2
     3    78    77    2
     4    85    84    1
     5    83    84    1
     6    96    95    1
     7    94    95    1
     8    84    87    1
     9    77    76    1
    10    87    88    1
    11    89    88   ar
    12    89    91   ar
    13    95    98    1
    14    88    90   ar
    15    75    76    1
    16    76    79    1
    17    98    99    1
    18    91    93   ar
    19    81    80    2
    20    79    80    1
    21    90    92   ar
    22    80    82   am
    23    99   100    1
    24    93    92   ar
    25   107   104    1
    26   107   108    1
    27   100   101    1
    28   122   123    1
    29   122   121    1
    30   122   125    1
    31   123   124    2
    32   104   103    1
    33   104   105    1
    34   118   120    1
    35   118   117    1
    36   108   109   ar
    37   108   110   ar
    38   109   111   ar
    39   129   130    1
    40   125   126    1
    41   131   130    1
    42   131   132    2
    43   119   117    1
    44   130   133    1
    45   114   117    1
    46   114   113    1
    47   114   115    1
    48   105   106    2
    49   101   102    1
    50   110   112   ar
    51   111   112   ar
    52   115   116    2
    53   135   137   ar
    54   135   134   ar
    55    70    69    2
    56   126   127    2
    57   126   128   am
    58   137   138   ar
    59   133   134    1
    60   134   136   ar
    61    60    59    2
    62    37    36    2
    63    45    44    2
    64    69    68    1
    65    67    68    1
    66    48    47    1
    67    74    72   ar
    68   138   136   ar
    69   138   140   ar
    70    71    68    1
    71    71    72    1
    72   136   139   ar
    73    59    58    1
    74    34    35    1
    75    46    47    1
    76    46    43    1
    77    72    73   ar
    78    47    49    1
    79    24    23    1
    80    42    43    1
    81    36    35    1
    82    44    43    1
    83    57    58    1
    84   140   142   ar
    85    53    52    2
    86    65    66   ar
    87    65    63   ar
    88    66    64   ar
    89    35    38    1
    90   139   141   ar
    91    58    61    1
    92    63    62   ar
    93    64    62   ar
    94    54    56    1
    95    54    55    1
    96    54    51    1
    97    38    39    1
    98    50    51    1
    99    23    21   ar
   100    23    22   ar
   101    62    61    1
   102    52    51    1
   103   142   141   ar
   104    21    19   ar
   105    22    20   ar
   106    40    39    1
   107    39    41    1
   108    19    18   ar
   109    20    18   ar
   110    18    17    1
   111    30    31    1
   112    30    29    1
   113    32    31    2
   114    26    29    1
   115    26    25    1
   116    26    27    1
   117    31    33   am
   118    17    14    1
   119    27    28    2
   120    14    15    1
   121    14    13    1
   122    15    16    2
   123     8    10   ar
   124     8     6   ar
   125    10    11   ar
   126     5     6    1
   127     5     2    1
   128     6     7   ar
   129    11    12    1
   130    11     9   ar
   131     7     9   ar
   132     1     2    1
   133     2     3    1
   134     4     3    2
