@<TRIPOS>MOLECULE
tmp/1ycpF00.pdb
 124 123 0 0 0
SMALL
GASTEIGER

@<TRIPOS>ATOM
      1  N         -3.0580   73.2550   51.5640 N.3    25  ILE25      -0.1245
      2  CA        -3.4430   71.8700   51.3890 C.3    25  ILE25       0.1561
      3  C         -2.2320   71.0010   51.7190 C.2    25  ILE25       0.2260
      4  O         -1.0910   71.4100   51.4840 O.2    25  ILE25      -0.2867
      5  CB        -4.0420   71.6570   49.9560 C.3    25  ILE25       0.0252
      6  CG1       -5.4950   72.1900   49.9350 C.3    25  ILE25       0.0019
      7  CG2       -3.9330   70.1960   49.5080 C.3    25  ILE25       0.0019
      8  CD1       -6.1490   72.3190   48.5580 C.3    25  ILE25       0.0001
      9  N         -0.0600   77.6990   33.0040 N.3    45  ASP45      -0.1225
     10  CA        -0.5780   76.7070   33.9570 C.3    45  ASP45       0.1805
     11  C         -1.5800   75.8520   33.2080 C.2    45  ASP45       0.2598
     12  O         -1.8990   76.1380   32.0590 O.2    45  ASP45      -0.2718
     13  CB        -1.3480   77.4320   35.0750 C.3    45  ASP45       0.1424
     14  CG        -1.5440   76.5840   36.3420 C.2    45  ASP45       0.3668
     15  OD1       -1.4310   75.3480   36.3060 O.co2  45  ASP45      -0.2456
     16  OD2       -1.8170   77.1680   37.4070 O.co2  45  ASP45      -0.2456
     17  N         -1.9980   74.7560   33.8250 N.am   46  ALA46      -0.1966
     18  CA        -3.0540   73.9180   33.2740 C.3    46  ALA46       0.1728
     19  C         -4.3490   74.6970   33.6330 C.2    46  ALA46       0.2616
     20  O         -4.2790   75.8940   33.9030 O.2    46  ALA46      -0.2715
     21  CB        -3.0460   72.5620   33.9380 C.3    46  ALA46       0.0334
     22  N         -5.5060   74.0460   33.6410 N.am   47  CYS47      -0.1954
     23  CA        -6.7540   74.7250   33.9700 C.3    47  CYS47       0.1843
     24  C         -7.9240   73.7890   33.6650 C.2    47  CYS47       0.2625
     25  O         -7.6980   72.6970   33.1720 O.2    47  CYS47      -0.2714
     26  CB        -6.8510   75.9940   33.1370 C.3    47  CYS47       0.0997
     27  SG        -7.9100   77.2750   33.8570 S.3    47  CYS47      -0.0797
     28  N         -9.1620   74.2040   33.9160 N.am   48  GLU48      -0.1963
     29  CA       -10.3380   73.3550   33.6450 C.3    48  GLU48       0.1733
     30  C        -10.3200   72.6020   32.3230 C.2    48  GLU48       0.2616
     31  O        -10.3180   73.2230   31.2650 O.2    48  GLU48      -0.2715
     32  CB       -11.6420   74.1640   33.7190 C.3    48  GLU48       0.0429
     33  CG       -12.1750   74.3300   35.1340 C.3    48  GLU48       0.1163
     34  CD       -11.2160   75.1140   36.0390 C.2    48  GLU48       0.3649
     35  OE1      -11.1730   76.3650   35.9190 O.co2  48  GLU48      -0.2457
     36  OE2      -10.5070   74.4820   36.8600 O.co2  48  GLU48      -0.2457
     37  N        -10.3300   71.2700   32.3860 N.am   49  GLY49      -0.1955
     38  CA       -10.3130   70.4760   31.1700 C.3    49  GLY49       0.1869
     39  C         -8.9350   69.9620   30.7600 C.2    49  GLY49       0.2309
     40  O         -8.8180   69.2280   29.7620 O.2    49  GLY49      -0.2863
     41  N         -7.0980   68.8810   33.2680 N.3    51  SER51      -0.1217
     42  CA        -7.0270   67.9630   34.3950 C.3    51  SER51       0.1889
     43  C         -7.0240   66.5370   33.9160 C.2    51  SER51       0.2288
     44  O         -7.8960   66.1540   33.1550 O.2    51  SER51      -0.2866
     45  CB        -8.2580   68.1660   35.2650 C.3    51  SER51       0.2089
     46  OG        -8.0030   67.8100   36.6080 O.3    51  SER51      -0.2183
     47  N         -1.6600   65.9770   35.4970 N.3    71  VAL71      -0.1231
     48  CA        -2.2500   67.1890   36.0140 C.3    71  VAL71       0.1692
     49  C         -3.4090   66.8040   36.9300 C.2    71  VAL71       0.2593
     50  O         -4.4090   66.2200   36.4880 O.2    71  VAL71      -0.2718
     51  CB        -2.7490   68.0980   34.8920 C.3    71  VAL71       0.0266
     52  CG1       -3.2310   69.4110   35.4890 C.3    71  VAL71       0.0020
     53  CG2       -1.6480   68.3130   33.8430 C.3    71  VAL71       0.0020
     54  N         -3.2450   67.1090   38.2120 N.am   72  SER72      -0.1938
     55  CA        -4.2410   66.7940   39.2250 C.3    72  SER72       0.2055
     56  C         -5.0510   67.9960   39.7010 C.2    72  SER72       0.2643
     57  O         -6.2340   68.1270   39.3790 O.2    72  SER72      -0.2714
     58  CB        -3.5620   66.1140   40.4250 C.3    72  SER72       0.2130
     59  OG        -4.4600   65.9280   41.5060 O.3    72  SER72      -0.2179
     60  N         -4.4350   68.8230   40.5390 N.am   73  TRP73      -0.1959
     61  CA        -5.1020   70.0040   41.0720 C.3    73  TRP73       0.1771
     62  C         -4.2490   71.2740   41.0110 C.2    73  TRP73       0.2620
     63  O         -3.2100   71.3200   40.3560 O.2    73  TRP73      -0.2715
     64  CB        -5.6270   69.7520   42.5040 C.3    73  TRP73       0.0590
     65  CG        -4.5950   69.4770   43.5620 C.ar   73  TRP73       0.0006
     66  CD1       -3.9720   68.2970   43.7970 C.ar   73  TRP73       0.0946
     67  CD2       -4.0780   70.4070   44.5420 C.ar   73  TRP73       0.0152
     68  NE1       -3.0990   68.4270   44.8470 N.ar   73  TRP73      -0.2442
     69  CE2       -3.1440   69.7090   45.3170 C.ar   73  TRP73       0.0810
     70  CE3       -4.3160   71.7540   44.8310 C.ar   73  TRP73       0.0012
     71  CZ2       -2.4430   70.3180   46.3650 C.ar   73  TRP73       0.0191
     72  CZ3       -3.6250   72.3500   45.8660 C.ar   73  TRP73       0.0001
     73  CH2       -2.6980   71.6360   46.6210 C.ar   73  TRP73       0.0015
     74  N         -4.7580   72.3120   41.6590 N.am   74  GLY74      -0.1940
     75  CA        -4.1180   73.6040   41.7450 C.3    74  GLY74       0.2014
     76  C         -5.2010   74.5460   42.2550 C.2    74  GLY74       0.2639
     77  O         -6.3700   74.1520   42.3440 O.2    74  GLY74      -0.2714
     78  N         -4.8230   75.7370   42.7080 N.am   75  GLU75      -0.1963
     79  CA        -5.8150   76.7160   43.1560 C.3    75  GLU75       0.1733
     80  C         -5.9300   77.7540   42.0410 C.2    75  GLU75       0.2617
     81  O         -5.0350   78.5720   41.8270 O.2    75  GLU75      -0.2715
     82  CB        -5.4070   77.3170   44.4940 C.3    75  GLU75       0.0429
     83  CG        -5.5070   76.2680   45.6170 C.3    75  GLU75       0.1163
     84  CD        -4.6150   76.5450   46.7980 C.2    75  GLU75       0.3649
     85  OE1       -4.4090   77.7310   47.1200 O.co2  75  GLU75      -0.2457
     86  OE2       -4.1220   75.5680   47.4030 O.co2  75  GLU75      -0.2457
     87  N         -6.9890   77.6240   41.2540 N.am   76  GLY76      -0.1940
     88  CA        -7.1840   78.5130   40.1270 C.3    76  GLY76       0.2014
     89  C         -6.2850   78.0630   38.9800 C.2    76  GLY76       0.2639
     90  O         -5.9420   76.8860   38.8750 O.2    76  GLY76      -0.2714
     91  N         -5.9250   78.9920   38.1090 N.am   77  CYS77      -0.1967
     92  CA        -5.0400   78.6870   37.0030 C.3    77  CYS77       0.1712
     93  C         -4.2110   79.9490   36.8830 C.2    77  CYS77       0.2296
     94  O         -4.7480   81.0530   36.8760 O.2    77  CYS77      -0.2864
     95  CB        -5.8180   78.4880   35.7000 C.3    77  CYS77       0.0983
     96  SG        -7.3210   77.4650   35.7940 S.3    77  CYS77      -0.0798
     97  N          1.1380   77.1640   42.2800 N.3    83  TYR83      -0.1227
     98  CA         1.7350   76.2890   41.2630 C.3    83  TYR83       0.1736
     99  C          0.7730   75.1440   40.9900 C.2    83  TYR83       0.2596
    100  O         -0.1560   74.9080   41.7760 O.2    83  TYR83      -0.2718
    101  CB         3.0720   75.7120   41.7420 C.3    83  TYR83       0.0548
    102  CG         3.9850   76.7580   42.2780 C.ar   83  TYR83      -0.0200
    103  CD1        4.7280   77.5630   41.4270 C.ar   83  TYR83      -0.0009
    104  CD2        4.0120   77.0310   43.6370 C.ar   83  TYR83      -0.0009
    105  CE1        5.4590   78.6220   41.9190 C.ar   83  TYR83       0.0417
    106  CE2        4.7380   78.0910   44.1390 C.ar   83  TYR83       0.0417
    107  CZ         5.4580   78.8810   43.2800 C.ar   83  TYR83       0.1957
    108  OH         6.1720   79.9400   43.7930 O.3    83  TYR83      -0.2866
    109  N          0.9860   74.4490   39.8760 N.am   84  GLY84      -0.1957
    110  CA         0.1420   73.3120   39.5490 C.3    84  GLY84       0.1869
    111  C          0.6490   72.0360   40.2080 C.2    84  GLY84       0.2309
    112  O          1.8690   71.8030   40.2640 O.2    84  GLY84      -0.2863
    113  N          0.8970   67.8820   40.4240 N.3    86  TYR86      -0.1241
    114  CA         0.8770   66.7240   39.5400 C.3    86  TYR86       0.1605
    115  C          1.1060   65.3940   40.2340 C.2    86  TYR86       0.2264
    116  O          2.0820   65.2580   40.9710 O.2    86  TYR86      -0.2867
    117  CB         1.9720   66.9020   38.4630 C.3    86  TYR86       0.0534
    118  CG         1.7950   68.1180   37.5870 C.ar   86  TYR86      -0.0201
    119  CD1        1.0050   68.0610   36.4600 C.ar   86  TYR86      -0.0009
    120  CD2        2.3250   69.3410   37.9510 C.ar   86  TYR86      -0.0009
    121  CE1        0.7280   69.1970   35.7240 C.ar   86  TYR86       0.0417
    122  CE2        2.0560   70.4890   37.2170 C.ar   86  TYR86       0.0417
    123  CZ         1.2470   70.4130   36.1030 C.ar   86  TYR86       0.1957
    124  OH         0.9120   71.5460   35.3900 O.3    86  TYR86      -0.2866
@<TRIPOS>BOND
     1    40    39    2
     2    39    38    1
     3    38    37    1
     4    31    30    2
     5    12    11    2
     6    30    37   am
     7    30    29    1
     8     9    10    1
     9    26    27    1
    10    26    23    1
    11    44    43    2
    12    25    24    2
    13    11    17   am
    14    11    10    1
    15    41    42    1
    16    18    19    1
    17    18    17    1
    18    18    21    1
    19    19    22   am
    20    19    20    2
    21    22    23    1
    22    29    32    1
    23    29    28    1
    24    24    28   am
    25    24    23    1
    26    32    33    1
    27    53    51    1
    28    27    96    1
    29    43    42    1
    30    10    13    1
    31    42    45    1
    32    51    52    1
    33    51    48    1
    34    13    14    1
    35    33    34    1
    36    45    46    1
    37   124   123    1
    38    47    48    1
    39    95    96    1
    40    95    92    1
    41   121   123   ar
    42   121   119   ar
    43    35    34   ar
    44    48    49    1
    45    34    36   ar
    46   123   122   ar
    47    15    14   ar
    48    14    16   ar
    49   119   118   ar
    50    50    49    2
    51    94    93    2
    52    93    92    1
    53    49    54   am
    54    92    91    1
    55   122   120   ar
    56   118   120   ar
    57   118   117    1
    58    91    89   am
    59    54    55    1
    60   117   114    1
    61    90    89    2
    62    89    88    1
    63    55    56    1
    64    55    58    1
    65    57    56    2
    66   114   115    1
    67   114   113    1
    68   110   109    1
    69   110   111    1
    70    56    60   am
    71   109    99   am
    72    88    87    1
    73   111   112    2
    74   115   116    2
    75    63    62    2
    76    58    59    1
    77    60    61    1
    78    99    98    1
    79    99   100    2
    80    62    61    1
    81    62    74   am
    82    61    64    1
    83    87    80   am
    84    98   101    1
    85    98    97    1
    86   103   105   ar
    87   103   102   ar
    88    74    75    1
    89   101   102    1
    90    75    76    1
    91    81    80    2
    92   105   107   ar
    93    80    79    1
    94    76    77    2
    95    76    78   am
    96   102   104   ar
    97    64    65    1
    98    78    79    1
    99    79    82    1
   100   107   108    1
   101   107   106   ar
   102    65    66   ar
   103    65    67   ar
   104   104   106   ar
   105    66    68   ar
   106    82    83    1
   107    67    70   ar
   108    67    69   ar
   109    70    72   ar
   110    68    69   ar
   111    69    71   ar
   112    83    84    1
   113    72    73   ar
   114    71    73   ar
   115    84    85   ar
   116    84    86   ar
   117     8     6    1
   118     7     5    1
   119     6     5    1
   120     5     2    1
   121     2     1    1
   122     2     3    1
   123     4     3    2
