@<TRIPOS>MOLECULE
tmp/1ycqA00.pdb
 140 136 0 0 0
SMALL
GASTEIGER

@<TRIPOS>ATOM
      1  N         58.8320   15.3950   30.0630 N.3    30  ILE30      -0.1231
      2  CA        59.8350   15.8070   31.0480 C.3    30  ILE30       0.1692
      3  C         60.8700   16.7330   30.4290 C.2    30  ILE30       0.2592
      4  O         61.2250   17.7500   31.0170 O.2    30  ILE30      -0.2718
      5  CB        60.5020   14.5910   31.7550 C.3    30  ILE30       0.0266
      6  CG1       59.5100   13.9270   32.7010 C.3    30  ILE30       0.0019
      7  CG2       61.6740   15.0310   32.5910 C.3    30  ILE30       0.0020
      8  CD1       59.0640   14.8390   33.7910 C.3    30  ILE30       0.0001
      9  N         61.3050   16.4220   29.2170 N.am   31  TYR31      -0.1976
     10  CA        62.2760   17.2610   28.5270 C.3    31  TYR31       0.1639
     11  C         61.7220   18.6560   28.3080 C.2    31  TYR31       0.2290
     12  O         62.3860   19.6450   28.6110 O.2    31  TYR31      -0.2864
     13  CB        62.6570   16.6740   27.1680 C.3    31  TYR31       0.0560
     14  CG        63.4990   17.6310   26.3590 C.ar   31  TYR31      -0.0198
     15  CD1       64.8360   17.8590   26.6900 C.ar   31  TYR31      -0.0009
     16  CD2       62.9360   18.3930   25.3270 C.ar   31  TYR31      -0.0009
     17  CE1       65.5940   18.8260   26.0290 C.ar   31  TYR31       0.0417
     18  CE2       63.6880   19.3730   24.6540 C.ar   31  TYR31       0.0417
     19  CZ        65.0170   19.5830   25.0170 C.ar   31  TYR31       0.1957
     20  OH        65.7690   20.5600   24.3920 O.3    31  TYR31      -0.2866
     21  N         59.2650   20.1800   29.8280 N.3    33  LEU33      -0.1231
     22  CA        58.9870   20.8600   31.0960 C.3    33  LEU33       0.1693
     23  C         60.2770   21.5060   31.6660 C.2    33  LEU33       0.2592
     24  O         60.2580   22.6370   32.1410 O.2    33  LEU33      -0.2718
     25  CB        58.3390   19.8800   32.0840 C.3    33  LEU33       0.0284
     26  CG        57.5160   20.4620   33.2320 C.3    33  LEU33       0.0019
     27  CD1       56.3910   21.3670   32.7270 C.3    33  LEU33       0.0001
     28  CD2       56.9650   19.3190   34.0380 C.3    33  LEU33       0.0001
     29  N         61.4160   20.8340   31.5350 N.am   34  GLY34      -0.1957
     30  CA        62.6620   21.4080   32.0190 C.3    34  GLY34       0.1869
     31  C         63.0120   22.6660   31.2450 C.2    34  GLY34       0.2309
     32  O         63.5390   23.6320   31.8150 O.2    34  GLY34      -0.2863
     33  N         60.8340   25.5580   32.4780 N.3    37  ILE37      -0.1231
     34  CA        61.3390   26.0440   33.7570 C.3    37  ILE37       0.1692
     35  C         62.6090   26.8470   33.5700 C.2    37  ILE37       0.2591
     36  O         62.8250   27.8610   34.2420 O.2    37  ILE37      -0.2718
     37  CB        61.5690   24.8780   34.7070 C.3    37  ILE37       0.0266
     38  CG1       60.2190   24.2010   34.9840 C.3    37  ILE37       0.0019
     39  CG2       62.2470   25.3700   35.9790 C.3    37  ILE37       0.0020
     40  CD1       60.3130   22.8270   35.5180 C.3    37  ILE37       0.0001
     41  N         63.4240   26.3900   32.6260 N.am   38  MET38      -0.1979
     42  CA        64.6840   27.0210   32.2640 C.3    38  MET38       0.1605
     43  C         64.4510   28.3890   31.6290 C.2    38  MET38       0.2287
     44  O         65.0120   29.3950   32.0610 O.2    38  MET38      -0.2864
     45  CB        65.3850   26.1350   31.2570 C.3    38  MET38       0.0413
     46  CG        66.8290   26.4350   31.0920 C.3    38  MET38       0.0598
     47  SD        67.7390   25.0840   31.7750 S.3    38  MET38      -0.1393
     48  CE        68.6520   25.9660   33.0270 C.3    38  MET38       0.0692
     49  N         63.4490   28.2470   38.6440 N.3    43  TYR43      -0.1241
     50  CA        64.2550   27.5880   39.6660 C.3    43  TYR43       0.1605
     51  C         65.0090   28.5920   40.5290 C.2    43  TYR43       0.2264
     52  O         65.2680   29.7270   40.1180 O.2    43  TYR43      -0.2867
     53  CB        65.2150   26.5570   39.0650 C.3    43  TYR43       0.0534
     54  CG        66.2480   27.1100   38.1210 C.ar   43  TYR43      -0.0201
     55  CD1       67.4780   27.5770   38.5910 C.ar   43  TYR43      -0.0009
     56  CD2       66.0180   27.1250   36.7490 C.ar   43  TYR43      -0.0009
     57  CE1       68.4420   28.0360   37.7220 C.ar   43  TYR43       0.0417
     58  CE2       66.9750   27.5840   35.8740 C.ar   43  TYR43       0.0417
     59  CZ        68.1820   28.0360   36.3650 C.ar   43  TYR43       0.1957
     60  OH        69.1200   28.5020   35.4840 O.3    43  TYR43      -0.2866
     61  N         69.2050   25.2980   43.4370 N.3    48  GLN48      -0.1231
     62  CA        68.6470   25.0450   42.1120 C.3    48  GLN48       0.1698
     63  C         67.7420   23.8280   41.9150 C.2    48  GLN48       0.2592
     64  O         67.3090   23.5420   40.7980 O.2    48  GLN48      -0.2718
     65  CB        69.7590   25.0910   41.0690 C.3    48  GLN48       0.0381
     66  CG        70.4530   26.4340   41.0660 C.3    48  GLN48       0.0905
     67  CD        71.1460   26.7440   39.7650 C.2    48  GLN48       0.2608
     68  OE1       71.1740   25.9270   38.8420 O.2    48  GLN48      -0.2717
     69  NE2       71.6910   27.9450   39.6720 N.am   48  GLN48      -0.0878
     70  N         67.4530   23.1110   42.9950 N.am   49  HIS49      -0.1976
     71  CA        66.5640   21.9630   42.8930 C.3    49  HIS49       0.1656
     72  C         65.1400   22.4070   43.2380 C.2    49  HIS49       0.2291
     73  O         64.1820   21.6770   42.9940 O.2    49  HIS49      -0.2864
     74  CB        67.0300   20.8220   43.8020 C.3    49  HIS49       0.0771
     75  CG        67.2120   21.2260   45.2270 C.ar   49  HIS49       0.0820
     76  ND1       66.2400   21.0280   46.1840 N.ar   49  HIS49      -0.2267
     77  CD2       68.2260   21.8730   45.8450 C.ar   49  HIS49       0.1154
     78  CE1       66.6430   21.5470   47.3280 C.ar   49  HIS49       0.1986
     79  NE2       67.8440   22.0670   47.1480 N.ar   49  HIS49      -0.2212
     80  N         61.9330   24.7640   42.5760 N.3    51  VAL51      -0.1245
     81  CA        61.2760   25.4980   41.5060 C.3    51  VAL51       0.1561
     82  C         60.1550   26.2830   42.1350 C.2    51  VAL51       0.2260
     83  O         59.3180   25.7030   42.7970 O.2    51  VAL51      -0.2867
     84  CB        60.6460   24.5310   40.4610 C.3    51  VAL51       0.0252
     85  CG1       59.8800   25.3060   39.3940 C.3    51  VAL51       0.0019
     86  CG2       61.7250   23.6660   39.8190 C.3    51  VAL51       0.0019
     87  N         58.2780   23.2750   44.3240 N.3    67  PHE67      -0.1241
     88  CA        58.5580   21.8570   44.4410 C.3    67  PHE67       0.1605
     89  C         60.0630   21.6460   44.2580 C.2    67  PHE67       0.2264
     90  O         60.7860   22.5770   43.8800 O.2    67  PHE67      -0.2867
     91  CB        57.6880   21.0020   43.4760 C.3    67  PHE67       0.0534
     92  CG        58.0070   21.1860   42.0080 C.ar   67  PHE67      -0.0203
     93  CD1       59.0330   20.4550   41.4050 C.ar   67  PHE67      -0.0042
     94  CD2       57.2930   22.0950   41.2350 C.ar   67  PHE67      -0.0042
     95  CE1       59.3440   20.6270   40.0640 C.ar   67  PHE67      -0.0003
     96  CE2       57.6010   22.2730   39.8820 C.ar   67  PHE67      -0.0003
     97  CZ        58.6330   21.5360   39.3010 C.ar   67  PHE67      -0.0000
     98  N         63.0920   19.2370   42.5940 N.3    69  VAL69      -0.1231
     99  CA        63.3060   18.2360   41.5650 C.3    69  VAL69       0.1692
    100  C         63.9100   17.0200   42.2560 C.2    69  VAL69       0.2591
    101  O         64.0340   15.9580   41.6540 O.2    69  VAL69      -0.2718
    102  CB        64.1760   18.7610   40.3500 C.3    69  VAL69       0.0266
    103  CG1       63.9950   20.2610   40.1740 C.3    69  VAL69       0.0020
    104  CG2       65.6260   18.3790   40.4910 C.3    69  VAL69       0.0020
    105  N         64.2430   17.1780   43.5390 N.am   70  LYS70      -0.1980
    106  CA        64.8000   16.0900   44.3230 C.3    70  LYS70       0.1596
    107  C         63.7310   15.1920   44.9550 C.2    70  LYS70       0.2287
    108  O         64.0290   14.3260   45.7640 O.2    70  LYS70      -0.2864
    109  CB        65.7750   16.6300   45.3550 C.3    70  LYS70       0.0298
    110  CG        67.1780   16.7090   44.8150 C.3    70  LYS70       0.0038
    111  CD        68.1180   17.3350   45.8060 C.3    70  LYS70       0.0206
    112  CE        69.5510   17.2600   45.3150 C.3    70  LYS70       0.1093
    113  NZ        70.4780   17.9780   46.2430 N.3    70  LYS70      -0.1314
    114  N         61.2360   13.1860   43.0200 N.3    72  PRO72      -0.2116
    115  CA        60.7060   12.6080   41.7810 C.3    72  PRO72       0.1372
    116  C         59.3030   12.0680   41.8730 C.2    72  PRO72       0.2244
    117  O         58.5110   12.2690   40.9520 O.2    72  PRO72      -0.2868
    118  CB        61.6960   11.4900   41.4630 C.3    72  PRO72       0.0268
    119  CG        62.9360   11.9570   42.0790 C.3    72  PRO72       0.0207
    120  CD        62.4840   12.5100   43.3980 C.3    72  PRO72       0.0892
    121  N         56.5250   14.7950   41.8430 N.3    75  LEU75      -0.1231
    122  CA        56.5180   15.4140   40.5080 C.3    75  LEU75       0.1693
    123  C         55.7330   14.5630   39.5080 C.2    75  LEU75       0.2592
    124  O         54.8220   15.0500   38.8440 O.2    75  LEU75      -0.2718
    125  CB        57.9580   15.6530   40.0060 C.3    75  LEU75       0.0284
    126  CG        58.1490   16.2420   38.5950 C.3    75  LEU75       0.0019
    127  CD1       57.6450   17.6720   38.5570 C.3    75  LEU75       0.0001
    128  CD2       59.6090   16.1700   38.1730 C.3    75  LEU75       0.0001
    129  N         56.0650   13.2870   39.4150 N.am   76  TYR76      -0.1976
    130  CA        55.3520   12.4260   38.4920 C.3    76  TYR76       0.1639
    131  C         53.8600   12.3720   38.7570 C.2    76  TYR76       0.2290
    132  O         53.0720   12.2980   37.8190 O.2    76  TYR76      -0.2864
    133  CB        55.9670   11.0310   38.4630 C.3    76  TYR76       0.0560
    134  CG        57.3600   11.0680   37.9030 C.ar   76  TYR76      -0.0198
    135  CD1       57.6060   11.5830   36.6340 C.ar   76  TYR76      -0.0009
    136  CD2       58.4440   10.6830   38.6730 C.ar   76  TYR76      -0.0009
    137  CE1       58.9090   11.7230   36.1480 C.ar   76  TYR76       0.0417
    138  CE2       59.7480   10.8170   38.2040 C.ar   76  TYR76       0.0417
    139  CZ        59.9770   11.3370   36.9430 C.ar   76  TYR76       0.1957
    140  OH        61.2730   11.4690   36.4890 O.3    76  TYR76      -0.2866
@<TRIPOS>BOND
     1    20    19    1
     2    18    19   ar
     3    18    16   ar
     4    19    17   ar
     5    16    14   ar
     6    17    15   ar
     7    14    15   ar
     8    14    13    1
     9    13    10    1
    10    11    10    1
    11    11    12    2
    12    10     9    1
    13     9     3   am
    14    21    22    1
    15     1     2    1
    16     3     4    2
    17     3     2    1
    18     2     5    1
    19    46    45    1
    20    46    47    1
    21    22    23    1
    22    22    25    1
    23    31    32    2
    24    31    30    1
    25    45    42    1
    26    29    23   am
    27    29    30    1
    28    43    44    2
    29    43    42    1
    30    23    24    2
    31     5     7    1
    32     5     6    1
    33    47    48    1
    34    25    26    1
    35    42    41    1
    36    33    34    1
    37    41    35   am
    38     6     8    1
    39    27    26    1
    40    26    28    1
    41    35    34    1
    42    35    36    2
    43    34    37    1
    44    37    38    1
    45    37    39    1
    46    38    40    1
    47    60    59    1
    48    58    59   ar
    49    58    56   ar
    50   137   135   ar
    51   137   139   ar
    52    59    57   ar
    53   140   139    1
    54   135   134   ar
    55    56    54   ar
    56   139   138   ar
    57    57    55   ar
    58   132   131    2
    59   134   133    1
    60   134   136   ar
    61    54    55   ar
    62    54    53    1
    63   128   126    1
    64   138   136   ar
    65   133   130    1
    66   130   131    1
    67   130   129    1
    68   127   126    1
    69   126   125    1
    70    49    50    1
    71    68    67    2
    72   124   123    2
    73    53    50    1
    74    97    96   ar
    75    97    95   ar
    76    85    84    1
    77   129   123   am
    78   123   122    1
    79    50    51    1
    80    69    67   am
    81    67    66    1
    82    86    84    1
    83    96    94   ar
    84   125   122    1
    85    95    93   ar
    86    52    51    2
    87   103   102    1
    88   102   104    1
    89   102    99    1
    90    84    81    1
    91   122   121    1
    92    64    63    2
    93   117   116    2
    94    66    65    1
    95    65    62    1
    96    94    92   ar
    97    93    92   ar
    98   118   115    1
    99   118   119    1
   100    81    82    1
   101    81    80    1
   102    99   100    1
   103    99    98    1
   104   101   100    2
   105   115   116    1
   106   115   114    1
   107    63    62    1
   108    63    70   am
   109    92    91    1
   110   119   120    1
   111    62    61    1
   112    82    83    2
   113   100   105   am
   114    71    70    1
   115    71    72    1
   116    71    74    1
   117    73    72    2
   118   114   120    1
   119    91    88    1
   120   105   106    1
   121    74    75    1
   122    90    89    2
   123    89    88    1
   124   106   107    1
   125   106   109    1
   126    87    88    1
   127   110   109    1
   128   110   111    1
   129   107   108    2
   130    75    77   ar
   131    75    76   ar
   132   112   111    1
   133   112   113    1
   134    77    79   ar
   135    76    78   ar
   136    79    78   ar
