@<TRIPOS>MOLECULE
tmp/1ydrA00.pdb
 155 146 0 0 0
SMALL
GASTEIGER

@<TRIPOS>ATOM
      1  N          8.3480   14.9490    8.1070 N.3    35  LEU35      -0.1231
      2  CA         8.1990   13.5500    8.4370 C.3    35  LEU35       0.1693
      3  C          9.4220   12.7540    8.0180 C.2    35  LEU35       0.2593
      4  O          9.6550   11.6350    8.4950 O.2    35  LEU35      -0.2718
      5  CB         6.9770   13.0010    7.7150 C.3    35  LEU35       0.0284
      6  CG         5.6920   13.7870    7.9560 C.3    35  LEU35       0.0019
      7  CD1        4.7660   13.5730    6.7720 C.3    35  LEU35       0.0001
      8  CD2        5.0640   13.3770    9.2900 C.3    35  LEU35       0.0001
      9  N         10.1880   13.3260    7.0950 N.am   36  GLY36      -0.1942
     10  CA        11.3630   12.6550    6.5790 C.3    36  GLY36       0.2014
     11  C         12.2530   13.6220    5.8400 C.2    36  GLY36       0.2639
     12  O         11.8480   14.7100    5.4230 O.2    36  GLY36      -0.2714
     13  N         13.4910   13.2090    5.6650 N.am   37  THR37      -0.1950
     14  CA        14.4670   14.0570    5.0180 C.3    37  THR37       0.1897
     15  C         15.0780   13.3670    3.7890 C.2    37  THR37       0.2313
     16  O         15.1820   12.1330    3.7450 O.2    37  THR37      -0.2863
     17  CB        15.5130   14.4750    6.0660 C.3    37  THR37       0.1794
     18  OG1       15.7750   15.8740    5.9440 O.3    37  THR37      -0.2208
     19  CG2       16.7990   13.6760    5.9360 C.3    37  THR37       0.0378
     20  N         10.3200   15.8380    3.3430 N.3    43  VAL43      -0.1245
     21  CA         8.8970   15.5310    3.3060 C.3    43  VAL43       0.1561
     22  C          8.2520   16.1770    4.5140 C.2    43  VAL43       0.2260
     23  O          8.7390   16.0480    5.6320 O.2    43  VAL43      -0.2867
     24  CB         8.5950   14.0150    3.2960 C.3    43  VAL43       0.0252
     25  CG1        7.0950   13.7600    3.5750 C.3    43  VAL43       0.0019
     26  CG2        8.9770   13.4260    1.9530 C.3    43  VAL43       0.0019
     27  N          1.2080   14.6040    2.4730 N.3    56  ALA56      -0.1245
     28  CA         2.6460   14.5650    2.6960 C.3    56  ALA56       0.1562
     29  C          3.2290   15.2140    1.4440 C.2    56  ALA56       0.2260
     30  O          3.0220   14.7250    0.3330 O.2    56  ALA56      -0.2867
     31  CB         3.1400   13.1250    2.8390 C.3    56  ALA56       0.0290
     32  N          6.4200   16.4570   -0.7570 N.3    58  LYS58      -0.1245
     33  CA         7.8310   16.1800   -1.0240 C.3    58  LYS58       0.1561
     34  C          8.3640   17.4050   -1.7320 C.2    58  LYS58       0.2260
     35  O          7.8270   17.8010   -2.7700 O.2    58  LYS58      -0.2867
     36  CB         7.9520   14.9600   -1.9340 C.3    58  LYS58       0.0271
     37  CG         9.3510   14.5710   -2.2350 C.3    58  LYS58       0.0035
     38  CD         9.4220   13.1480   -2.7880 C.3    58  LYS58       0.0206
     39  CE        10.8620   12.8180   -3.1200 C.3    58  LYS58       0.1093
     40  NZ        11.0740   11.3820   -3.4190 N.3    58  LYS58      -0.1314
     41  N          1.5930    4.7510   -2.8980 N.3    90  VAL90      -0.1245
     42  CA         1.1010    6.0720   -2.4480 C.3    90  VAL90       0.1561
     43  C          0.4550    6.8960   -3.5760 C.2    90  VAL90       0.2260
     44  O          0.9300    6.8940   -4.7290 O.2    90  VAL90      -0.2867
     45  CB         2.1960    6.9970   -1.9080 C.3    90  VAL90       0.0252
     46  CG1        2.2890    6.9000   -0.4130 C.3    90  VAL90       0.0019
     47  CG2        3.4940    6.7360   -2.6280 C.3    90  VAL90       0.0019
     48  N          1.3070   14.0590   -1.7450 N.3   106  MET106     -0.1230
     49  CA         0.7180   12.7360   -1.7210 C.3   106  MET106      0.1702
     50  C         -0.1540   12.5570   -0.5020 C.2   106  MET106      0.2592
     51  O         -0.1800   13.3920    0.3920 O.2   106  MET106     -0.2718
     52  CB         1.8260   11.6850   -1.7200 C.3   106  MET106      0.0401
     53  CG         2.7410   11.7870   -2.9120 C.3   106  MET106      0.0596
     54  SD         4.2450   10.9680   -2.5740 S.3   106  MET106     -0.1393
     55  CE         5.2280   12.2830   -2.1710 C.3   106  MET106      0.0692
     56  N         -0.9060   11.4720   -0.5020 N.am  107  GLU107     -0.1966
     57  CA        -1.7880   11.1210    0.5990 C.3   107  GLU107      0.1733
     58  C         -0.9080   10.8540    1.8260 C.2   107  GLU107      0.2616
     59  O          0.1540   10.2330    1.7100 O.2   107  GLU107     -0.2715
     60  CB        -2.5350    9.8480    0.2070 C.3   107  GLU107      0.0429
     61  CG        -3.7610    9.5180    1.0000 C.3   107  GLU107      0.1163
     62  CD        -4.2270    8.0860    0.7500 C.2   107  GLU107      0.3649
     63  OE1       -3.3840    7.1560    0.8500 O.co2 107  GLU107     -0.2457
     64  OE2       -5.4330    7.8920    0.4630 O.co2 107  GLU107     -0.2457
     65  N         -1.3170   11.3540    2.9880 N.am  108  TYR108     -0.1960
     66  CA        -0.5380   11.1110    4.2110 C.3   108  TYR108      0.1771
     67  C         -0.8830    9.6980    4.7310 C.2   108  TYR108      0.2619
     68  O         -2.0510    9.3080    4.7980 O.2   108  TYR108     -0.2715
     69  CB        -0.8230   12.2030    5.2570 C.3   108  TYR108      0.0574
     70  CG        -0.1920   11.9840    6.6250 C.ar  108  TYR108     -0.0198
     71  CD1        1.1410   11.6300    6.7570 C.ar  108  TYR108     -0.0009
     72  CD2       -0.9300   12.1830    7.7920 C.ar  108  TYR108     -0.0009
     73  CE1        1.7270   11.4870    8.0110 C.ar  108  TYR108      0.0417
     74  CE2       -0.3450   12.0410    9.0560 C.ar  108  TYR108      0.0417
     75  CZ         0.9800   11.6970    9.1510 C.ar  108  TYR108      0.1957
     76  OH         1.5660   11.5870   10.3880 O.3   108  TYR108     -0.2866
     77  N          0.1460    8.9080    4.9870 N.am  109  VAL109     -0.1977
     78  CA        -0.0140    7.5430    5.4570 C.3   109  VAL109      0.1596
     79  C          0.4530    7.5990    6.8930 C.2   109  VAL109      0.2287
     80  O          1.6520    7.6080    7.1750 O.2   109  VAL109     -0.2864
     81  CB         0.8480    6.5680    4.6120 C.3   109  VAL109      0.0276
     82  CG1        0.6140    5.1110    5.0390 C.3   109  VAL109      0.0022
     83  CG2        0.5010    6.7230    3.1270 C.3   109  VAL109      0.0022
     84  N          7.0140    4.2940    9.1580 N.3   113  GLU113     -0.1245
     85  CA         7.7980    3.4140    8.2760 C.3   113  GLU113      0.1567
     86  C          7.8920    1.9990    8.8050 C.2   113  GLU113      0.2260
     87  O          7.9050    1.7740   10.0180 O.2   113  GLU113     -0.2867
     88  CB         9.2270    3.9220    8.1380 C.3   113  GLU113      0.0388
     89  CG         9.3390    5.4390    8.0790 C.3   113  GLU113      0.1160
     90  CD        10.7550    5.9560    7.9800 C.2   113  GLU113      0.3649
     91  OE1       11.7220    5.1590    8.0080 O.co2 113  GLU113     -0.2457
     92  OE2       10.8910    7.1860    7.8640 O.co2 113  GLU113     -0.2457
     93  N         12.6460    1.2630    4.7660 N.3   156  GLU156     -0.1231
     94  CA        12.5510    2.7250    4.8240 C.3   156  GLU156      0.1699
     95  C         11.5940    3.3100    3.8170 C.2   156  GLU156      0.2592
     96  O         11.1490    4.4420    3.9810 O.2   156  GLU156     -0.2718
     97  CB        13.9300    3.3900    4.6080 C.3   156  GLU156      0.0402
     98  CG        15.0050    3.0910    5.6930 C.3   156  GLU156      0.1161
     99  CD        15.9330    1.9150    5.3660 C.2   156  GLU156      0.3649
    100  OE1       15.4630    0.8870    4.8300 O.co2 156  GLU156     -0.2457
    101  OE2       17.1470    2.0010    5.6650 O.co2 156  GLU156     -0.2457
    102  N         11.3100    2.5650    2.7550 N.am  157  ASN157     -0.1974
    103  CA        10.4150    3.0560    1.7100 C.3   157  ASN157      0.1688
    104  C          9.0010    2.4800    1.7810 C.2   157  ASN157      0.2292
    105  O          8.1720    2.7740    0.9260 O.2   157  ASN157     -0.2864
    106  CB        11.0140    2.8140    0.3160 C.3   157  ASN157      0.1181
    107  CG        12.1730    3.7670   -0.0130 C.2   157  ASN157      0.2629
    108  OD1       12.2490    4.8750    0.4960 O.2   157  ASN157     -0.2716
    109  ND2       13.0490    3.3360   -0.8900 N.am  157  ASN157     -0.0877
    110  N          5.5000    2.3030    3.9000 N.3   159  LEU159     -0.1245
    111  CA         4.7270    2.9210    4.9530 C.3   159  LEU159      0.1561
    112  C          3.5370    2.0390    5.3190 C.2   159  LEU159      0.2260
    113  O          2.9950    1.3530    4.4550 O.2   159  LEU159     -0.2867
    114  CB         4.2550    4.2930    4.4800 C.3   159  LEU159      0.0270
    115  CG         5.3620    5.2950    4.1340 C.3   159  LEU159      0.0019
    116  CD1        4.7950    6.5040    3.4150 C.3   159  LEU159      0.0001
    117  CD2        6.0430    5.7350    5.4260 C.3   159  LEU159      0.0001
    118  N          6.5600    3.9530   -1.2140 N.3   169  THR169     -0.1203
    119  CA         6.8340    5.3520   -1.5790 C.3   169  THR169      0.1994
    120  C          8.2100    5.4730   -2.2730 C.2   169  THR169      0.2617
    121  O          8.8690    4.4710   -2.5180 O.2   169  THR169     -0.2717
    122  CB         6.7830    6.3110   -0.3280 C.3   169  THR169      0.1784
    123  OG1        7.7560    5.9200    0.6610 O.3   169  THR169     -0.2211
    124  CG2        5.4460    6.2630    0.2930 C.3   169  THR169      0.0376
    125  N          8.5990    6.6950   -2.6250 N.am  170  ASP170     -0.1973
    126  CA         9.8950    6.9730   -3.2290 C.3   170  ASP170      0.1709
    127  C         10.1740    6.2380   -4.5280 C.2   170  ASP170      0.2293
    128  O         10.8360    5.1940   -4.5580 O.2   170  ASP170     -0.2864
    129  CB        11.0300    6.7310   -2.2030 C.3   170  ASP170      0.1436
    130  CG        12.3620    7.4320   -2.5790 C.2   170  ASP170      0.3671
    131  OD1       12.4870    8.0670   -3.6640 O.co2 170  ASP170     -0.2456
    132  OD2       13.3120    7.3390   -1.7650 O.co2 170  ASP170     -0.2456
    133  N          6.3660    8.8160   13.4430 N.3   312  PHE312     -0.1241
    134  CA         7.4620    9.3690   12.6550 C.3   312  PHE312      0.1605
    135  C          8.4320   10.0940   13.5810 C.2   312  PHE312      0.2264
    136  O          8.0210   10.6090   14.6180 O.2   312  PHE312     -0.2867
    137  CB         6.9190   10.3490   11.6190 C.3   312  PHE312      0.0534
    138  CG         6.1320    9.6990   10.5220 C.ar  312  PHE312     -0.0203
    139  CD1        6.7780    9.1980    9.3910 C.ar  312  PHE312     -0.0042
    140  CD2        4.7260    9.6170   10.6040 C.ar  312  PHE312     -0.0042
    141  CE1        6.0430    8.6300    8.3530 C.ar  312  PHE312     -0.0003
    142  CE2        3.9580    9.0460    9.5700 C.ar  312  PHE312     -0.0003
    143  CZ         4.6140    8.5540    8.4440 C.ar  312  PHE312     -0.0000
    144  N         12.4200   15.8650   13.1660 N.3   315  TYR315     -0.1241
    145  CA        13.5070   16.3960   12.3620 C.3   315  TYR315      0.1605
    146  C         13.6300   17.9010   12.5980 C.2   315  TYR315      0.2264
    147  O         12.6790   18.5210   13.0680 O.2   315  TYR315     -0.2867
    148  CB        13.2600   16.0860   10.8810 C.3   315  TYR315      0.0534
    149  CG        13.2240   14.6000   10.5770 C.ar  315  TYR315     -0.0201
    150  CD1       12.0530   13.8640   10.7300 C.ar  315  TYR315     -0.0009
    151  CD2       14.3630   13.9430   10.1260 C.ar  315  TYR315     -0.0009
    152  CE1       12.0170   12.5200   10.4350 C.ar  315  TYR315      0.0417
    153  CE2       14.3380   12.6040    9.8290 C.ar  315  TYR315      0.0417
    154  CZ        13.1660   11.8880    9.9760 C.ar  315  TYR315      0.1957
    155  OH        13.1290   10.5540    9.6100 O.3   315  TYR315     -0.2866
@<TRIPOS>BOND
     1    44    43    2
     2   128   127    2
     3   127   126    1
     4   131   130   ar
     5    43    42    1
     6    40    39    1
     7   126   125    1
     8   126   129    1
     9    39    38    1
    10    53    54    1
    11    53    52    1
    12    41    42    1
    13    38    37    1
    14    35    34    2
    15    47    45    1
    16   125   120   am
    17   130   129    1
    18   130   132   ar
    19    54    55    1
    20   121   120    2
    21    42    45    1
    22   120   119    1
    23    37    36    1
    24    36    33    1
    25    45    46    1
    26    48    49    1
    27    34    33    1
    28    49    52    1
    29    49    50    1
    30   119   118    1
    31   119   122    1
    32    33    32    1
    33   109   107   am
    34    56    50   am
    35    56    57    1
    36    50    51    2
    37   122   124    1
    38   122   123    1
    39   107   106    1
    40   107   108    2
    41    60    57    1
    42    60    61    1
    43   106   103    1
    44    30    29    2
    45    64    62   ar
    46    57    58    1
    47    62    63   ar
    48    62    61    1
    49   105   104    2
    50    29    28    1
    51   103   104    1
    52   103   102    1
    53    59    58    2
    54    58    65   am
    55    26    24    1
    56    27    28    1
    57    28    31    1
    58   102    95   am
    59    65    66    1
    60    83    81    1
    61    24    21    1
    62    24    25    1
    63    21    20    1
    64    21    22    1
    65   116   115    1
    66    16    15    2
    67    15    14    1
    68    95    96    2
    69    95    94    1
    70   110   111    1
    71   115   114    1
    72   115   117    1
    73    66    67    1
    74    66    69    1
    75   113   112    2
    76   114   111    1
    77    22    23    2
    78    97    94    1
    79    97    98    1
    80    81    82    1
    81    81    78    1
    82    67    68    2
    83    67    77   am
    84    93    94    1
    85   100    99   ar
    86   111   112    1
    87    77    78    1
    88    14    13    1
    89    14    17    1
    90    69    70    1
    91    99   101   ar
    92    99    98    1
    93    12    11    2
    94    78    79    1
    95    13    11   am
    96    11    10    1
    97    19    17    1
    98    18    17    1
    99    10     9    1
   100    70    71   ar
   101    70    72   ar
   102    71    73   ar
   103     7     6    1
   104    79    80    2
   105     9     3   am
   106     5     6    1
   107     5     2    1
   108    72    74   ar
   109    92    90   ar
   110     6     8    1
   111    90    91   ar
   112    90    89    1
   113    73    75   ar
   114     3     2    1
   115     3     4    2
   116    89    88    1
   117     1     2    1
   118    88    85    1
   119    85    86    1
   120    85    84    1
   121   141   143   ar
   122   141   139   ar
   123   143   142   ar
   124    86    87    2
   125    74    75   ar
   126    75    76    1
   127   139   138   ar
   128   142   140   ar
   129   155   154    1
   130   153   154   ar
   131   153   151   ar
   132   154   152   ar
   133   151   149   ar
   134   152   150   ar
   135   138   140   ar
   136   138   137    1
   137   149   150   ar
   138   149   148    1
   139   148   145    1
   140   137   134    1
   141   145   146    1
   142   145   144    1
   143   146   147    2
   144   134   133    1
   145   134   135    1
   146   135   136    2
