@<TRIPOS>MOLECULE
tmp/1ydsA00.pdb
 143 134 0 0 0
SMALL
GASTEIGER

@<TRIPOS>ATOM
      1  N          8.2690   14.9970    8.0300 N.3    35  LEU35      -0.1231
      2  CA         8.0860   13.5780    8.3320 C.3    35  LEU35       0.1693
      3  C          9.2950   12.7240    7.9710 C.2    35  LEU35       0.2593
      4  O          9.4370   11.5810    8.4330 O.2    35  LEU35      -0.2718
      5  CB         6.8950   13.0670    7.5430 C.3    35  LEU35       0.0284
      6  CG         5.5800   13.7510    7.8770 C.3    35  LEU35       0.0019
      7  CD1        4.6300   13.5110    6.7400 C.3    35  LEU35       0.0001
      8  CD2        5.0210   13.2460    9.2000 C.3    35  LEU35       0.0001
      9  N         10.1150   13.2580    7.0700 N.am   36  GLY36      -0.1942
     10  CA        11.2940   12.5640    6.5970 C.3    36  GLY36       0.2014
     11  C         12.1820   13.5190    5.8240 C.2    36  GLY36       0.2639
     12  O         11.7410   14.5510    5.2910 O.2    36  GLY36      -0.2714
     13  N         13.4540   13.1660    5.7290 N.am   37  THR37      -0.1950
     14  CA        14.3850   14.0360    5.0420 C.3    37  THR37       0.1897
     15  C         15.1910   13.3400    3.9370 C.2    37  THR37       0.2313
     16  O         15.1810   12.1140    3.8280 O.2    37  THR37      -0.2863
     17  CB        15.2850   14.6770    6.0710 C.3    37  THR37       0.1794
     18  OG1       15.7070   15.9490    5.5880 O.3    37  THR37      -0.2208
     19  CG2       16.4780   13.7940    6.3640 C.3    37  THR37       0.0378
     20  N         10.2170   15.7840    3.2670 N.3    43  VAL43      -0.1245
     21  CA         8.7920   15.5630    3.1200 C.3    43  VAL43       0.1561
     22  C          8.1540   16.1800    4.3540 C.2    43  VAL43       0.2260
     23  O          8.5900   15.9530    5.4850 O.2    43  VAL43      -0.2867
     24  CB         8.4230   14.0730    3.0050 C.3    43  VAL43       0.0252
     25  CG1        6.8990   13.9030    2.9630 C.3    43  VAL43       0.0019
     26  CG2        9.0780   13.4620    1.7580 C.3    43  VAL43       0.0019
     27  N          1.2550   14.5020    2.5350 N.3    56  ALA56      -0.1245
     28  CA         2.6930   14.5260    2.7340 C.3    56  ALA56       0.1562
     29  C          3.2000   15.1980    1.4470 C.2    56  ALA56       0.2260
     30  O          2.9930   14.6970    0.3450 O.2    56  ALA56      -0.2867
     31  CB         3.2520   13.0940    2.8710 C.3    56  ALA56       0.0290
     32  N          6.3380   16.3830   -0.7590 N.3    58  LYS58      -0.1245
     33  CA         7.7730   16.1810   -0.9810 C.3    58  LYS58       0.1561
     34  C          8.2520   17.4240   -1.6740 C.2    58  LYS58       0.2260
     35  O          7.6460   17.8510   -2.6540 O.2    58  LYS58      -0.2867
     36  CB         7.9810   14.9850   -1.8940 C.3    58  LYS58       0.0271
     37  CG         9.4090   14.6080   -2.1400 C.3    58  LYS58       0.0035
     38  CD         9.4850   13.1690   -2.7240 C.3    58  LYS58       0.0206
     39  CE        10.9250   12.7660   -2.9800 C.3    58  LYS58       0.1093
     40  NZ        11.0450   11.3490   -3.3950 N.3    58  LYS58      -0.1314
     41  N          1.5940    4.7380   -2.9310 N.3    90  VAL90      -0.1245
     42  CA         1.0910    6.0450   -2.4840 C.3    90  VAL90       0.1561
     43  C          0.4380    6.8220   -3.6320 C.2    90  VAL90       0.2260
     44  O          0.8870    6.7360   -4.7870 O.2    90  VAL90      -0.2867
     45  CB         2.1740    6.9770   -1.9610 C.3    90  VAL90       0.0252
     46  CG1        2.2720    6.8880   -0.4840 C.3    90  VAL90       0.0019
     47  CG2        3.4710    6.7040   -2.6670 C.3    90  VAL90       0.0019
     48  N          1.3370   14.0830   -1.8230 N.3   106  MET106     -0.1230
     49  CA         0.8100   12.7360   -1.7530 C.3   106  MET106      0.1702
     50  C         -0.0550   12.5400   -0.5290 C.2   106  MET106      0.2592
     51  O         -0.0940   13.3690    0.3540 O.2   106  MET106     -0.2718
     52  CB         1.9720   11.7340   -1.7190 C.3   106  MET106      0.0401
     53  CG         2.9200   11.8800   -2.9060 C.3   106  MET106      0.0596
     54  SD         4.4330   11.0370   -2.6300 S.3   106  MET106     -0.1393
     55  CE         5.4350   12.3580   -2.0190 C.3   106  MET106      0.0692
     56  N         -0.7860   11.4430   -0.5270 N.am  107  GLU107     -0.1966
     57  CA        -1.6550   11.0470    0.5660 C.3   107  GLU107      0.1733
     58  C         -0.8050   10.8010    1.8340 C.2   107  GLU107      0.2616
     59  O          0.2530   10.1610    1.7620 O.2   107  GLU107     -0.2715
     60  CB        -2.3460    9.7690    0.1180 C.3   107  GLU107      0.0429
     61  CG        -3.4080    9.2140    1.0130 C.3   107  GLU107      0.1163
     62  CD        -3.8700    7.8510    0.5210 C.2   107  GLU107      0.3649
     63  OE1       -3.0230    7.0870   -0.0130 O.co2 107  GLU107     -0.2457
     64  OE2       -5.0790    7.5520    0.6420 O.co2 107  GLU107     -0.2457
     65  N         -1.2150   11.3560    2.9760 N.am  108  TYR108     -0.1960
     66  CA        -0.4550   11.1350    4.2150 C.3   108  TYR108      0.1771
     67  C         -0.7260    9.7170    4.7800 C.2   108  TYR108      0.2619
     68  O         -1.8640    9.3420    4.9970 O.2   108  TYR108     -0.2715
     69  CB        -0.7800   12.2190    5.2590 C.3   108  TYR108      0.0574
     70  CG        -0.1400   11.9980    6.6260 C.ar  108  TYR108     -0.0198
     71  CD1        1.2250   11.7400    6.7540 C.ar  108  TYR108     -0.0009
     72  CD2       -0.8920   12.0830    7.7900 C.ar  108  TYR108     -0.0009
     73  CE1        1.8210   11.5830    8.0030 C.ar  108  TYR108      0.0417
     74  CE2       -0.2990   11.9260    9.0490 C.ar  108  TYR108      0.0417
     75  CZ         1.0520   11.6800    9.1400 C.ar  108  TYR108      0.1957
     76  OH         1.6350   11.5460   10.3710 O.3   108  TYR108     -0.2866
     77  N          0.3230    8.9260    4.9580 N.am  109  VAL109     -0.1977
     78  CA         0.1800    7.5780    5.4790 C.3   109  VAL109      0.1596
     79  C          0.6180    7.6320    6.9380 C.2   109  VAL109      0.2287
     80  O          1.8160    7.5890    7.2610 O.2   109  VAL109     -0.2864
     81  CB         1.0230    6.5500    4.6750 C.3   109  VAL109      0.0276
     82  CG1        0.7290    5.1250    5.1670 C.3   109  VAL109      0.0022
     83  CG2        0.7250    6.6650    3.1670 C.3   109  VAL109      0.0022
     84  N          7.0300    4.3130    9.0710 N.3   113  GLU113     -0.1245
     85  CA         7.8010    3.3780    8.2380 C.3   113  GLU113      0.1567
     86  C          7.8250    1.9600    8.7810 C.2   113  GLU113      0.2260
     87  O          7.7290    1.7450    9.9790 O.2   113  GLU113     -0.2867
     88  CB         9.2510    3.8530    8.0950 C.3   113  GLU113      0.0388
     89  CG         9.3980    5.1710    7.3370 C.3   113  GLU113      0.1160
     90  CD        10.7380    5.8460    7.5330 C.2   113  GLU113      0.3649
     91  OE1       11.6610    5.2420    8.1110 O.co2 113  GLU113     -0.2457
     92  OE2       10.8740    6.9950    7.0900 O.co2 113  GLU113     -0.2457
     93  N         12.4740    1.3620    4.9020 N.3   156  GLU156     -0.1231
     94  CA        12.3190    2.8220    4.9780 C.3   156  GLU156      0.1699
     95  C         11.3470    3.3700    3.9730 C.2   156  GLU156      0.2592
     96  O         10.7770    4.4430    4.1830 O.2   156  GLU156     -0.2718
     97  CB        13.6760    3.5340    4.7760 C.3   156  GLU156      0.0402
     98  CG        14.7750    3.2040    5.8130 C.3   156  GLU156      0.1161
     99  CD        15.6630    1.9870    5.4700 C.2   156  GLU156      0.3649
    100  OE1       15.1770    0.8790    5.1460 O.co2 156  GLU156     -0.2457
    101  OE2       16.8940    2.1170    5.5640 O.co2 156  GLU156     -0.2457
    102  N         11.1920    2.6420    2.8660 N.am  157  ASN157     -0.1974
    103  CA        10.3140    3.0440    1.7700 C.3   157  ASN157      0.1688
    104  C          8.9450    2.3900    1.7820 C.2   157  ASN157      0.2292
    105  O          8.1780    2.5570    0.8390 O.2   157  ASN157     -0.2864
    106  CB        11.0050    2.8120    0.4230 C.3   157  ASN157      0.1181
    107  CG        12.2420    3.6830    0.2540 C.2   157  ASN157      0.2629
    108  OD1       12.4410    4.6200    1.0250 O.2   157  ASN157     -0.2716
    109  ND2       13.0840    3.3690   -0.7280 N.am  157  ASN157     -0.0877
    110  N          5.4470    2.2080    3.9200 N.3   159  LEU159     -0.1245
    111  CA         4.6970    2.8220    4.9850 C.3   159  LEU159      0.1561
    112  C          3.4860    1.9810    5.3790 C.2   159  LEU159      0.2260
    113  O          2.8800    1.3310    4.5230 O.2   159  LEU159     -0.2867
    114  CB         4.2790    4.2280    4.5610 C.3   159  LEU159      0.0270
    115  CG         5.4360    5.2200    4.3520 C.3   159  LEU159      0.0019
    116  CD1        4.8930    6.4980    3.7560 C.3   159  LEU159      0.0001
    117  CD2        6.1560    5.5290    5.6640 C.3   159  LEU159      0.0001
    118  N          6.3660    4.0470   -1.0600 N.3   169  THR169     -0.1203
    119  CA         6.6770    5.4480   -1.3980 C.3   169  THR169      0.1994
    120  C          8.0640    5.5230   -2.1200 C.2   169  THR169      0.2617
    121  O          8.6370    4.5030   -2.4840 O.2   169  THR169     -0.2717
    122  CB         6.6870    6.3570   -0.0840 C.3   169  THR169      0.1784
    123  OG1        7.7050    5.9220    0.8340 O.3   169  THR169     -0.2211
    124  CG2        5.3880    6.2510    0.6260 C.3   169  THR169      0.0376
    125  N          8.5510    6.7220   -2.4070 N.am  170  ASP170     -0.1973
    126  CA         9.8740    6.8760   -2.9930 C.3   170  ASP170      0.1709
    127  C         10.1380    6.2290   -4.3370 C.2   170  ASP170      0.2293
    128  O         10.9370    5.2910   -4.4430 O.2   170  ASP170     -0.2864
    129  CB        10.9350    6.3830   -2.0040 C.3   170  ASP170      0.1436
    130  CG        10.7870    7.0130   -0.6200 C.2   170  ASP170      0.3671
    131  OD1       11.3570    8.1000   -0.4200 O.co2 170  ASP170     -0.2456
    132  OD2       10.1080    6.4320    0.2660 O.co2 170  ASP170     -0.2456
    133  N          6.2970    8.8130   13.4710 N.3   312  PHE312     -0.1241
    134  CA         7.4010    9.3740   12.7130 C.3   312  PHE312      0.1605
    135  C          8.4190   10.0260   13.6430 C.2   312  PHE312      0.2264
    136  O          8.0730   10.4550   14.7530 O.2   312  PHE312     -0.2867
    137  CB         6.8630   10.3990   11.7280 C.3   312  PHE312      0.0534
    138  CG         6.0460    9.7960   10.6100 C.ar  312  PHE312     -0.0203
    139  CD1        6.6700    9.3000    9.4550 C.ar  312  PHE312     -0.0042
    140  CD2        4.6410    9.7380   10.7040 C.ar  312  PHE312     -0.0042
    141  CE1        5.9000    8.7640    8.4200 C.ar  312  PHE312     -0.0003
    142  CE2        3.8530    9.1990    9.6660 C.ar  312  PHE312     -0.0003
    143  CZ         4.4770    8.7150    8.5280 C.ar  312  PHE312     -0.0000
@<TRIPOS>BOND
     1    44    43    2
     2   128   127    2
     3   127   126    1
     4    43    42    1
     5    40    39    1
     6   126   125    1
     7   126   129    1
     8    39    38    1
     9    41    42    1
    10    53    54    1
    11    53    52    1
    12    38    37    1
    13    47    45    1
    14    35    34    2
    15    54    55    1
    16    42    45    1
    17   121   120    2
    18   125   120   am
    19    37    36    1
    20   120   119    1
    21   129   130    1
    22    45    46    1
    23    36    33    1
    24    48    49    1
    25    49    52    1
    26    49    50    1
    27    34    33    1
    28   119   118    1
    29   119   122    1
    30    33    32    1
    31   109   107   am
    32   130   131   ar
    33   130   132   ar
    34    50    56   am
    35    50    51    2
    36    56    57    1
    37   122   124    1
    38   122   123    1
    39    63    62   ar
    40    60    57    1
    41    60    61    1
    42   107   106    1
    43   107   108    2
    44    30    29    2
    45   106   103    1
    46    62    64   ar
    47    62    61    1
    48    57    58    1
    49   105   104    2
    50    29    28    1
    51    26    24    1
    52    59    58    2
    53   103   104    1
    54   103   102    1
    55    58    65   am
    56    27    28    1
    57    28    31    1
    58   102    95   am
    59    25    24    1
    60    65    66    1
    61    24    21    1
    62    21    20    1
    63    21    22    1
    64    83    81    1
    65   116   115    1
    66    16    15    2
    67   110   111    1
    68    15    14    1
    69    95    96    2
    70    95    94    1
    71    66    67    1
    72    66    69    1
    73   115   114    1
    74   115   117    1
    75    22    23    2
    76   113   112    2
    77   114   111    1
    78    81    82    1
    79    81    78    1
    80    97    94    1
    81    97    98    1
    82    67    77   am
    83    67    68    2
    84    93    94    1
    85    77    78    1
    86   111   112    1
    87    14    13    1
    88    14    17    1
    89   100    99   ar
    90    69    70    1
    91    12    11    2
    92    99   101   ar
    93    99    98    1
    94    78    79    1
    95    18    17    1
    96    13    11   am
    97    11    10    1
    98    17    19    1
    99    10     9    1
   100    70    71   ar
   101    70    72   ar
   102     7     6    1
   103    71    73   ar
   104    79    80    2
   105     9     3   am
   106    92    90   ar
   107    89    90    1
   108    89    88    1
   109    90    91   ar
   110     5     6    1
   111     5     2    1
   112    72    74   ar
   113     6     8    1
   114     3     2    1
   115     3     4    2
   116    73    75   ar
   117     1     2    1
   118    88    85    1
   119    85    86    1
   120    85    84    1
   121   141   143   ar
   122   141   139   ar
   123   143   142   ar
   124    86    87    2
   125    74    75   ar
   126    75    76    1
   127   139   138   ar
   128   142   140   ar
   129   138   140   ar
   130   138   137    1
   131   137   134    1
   132   134   133    1
   133   134   135    1
   134   135   136    2
