@<TRIPOS>MOLECULE
tmp/1ydtA00.pdb
 196 187 0 0 0
SMALL
GASTEIGER

@<TRIPOS>ATOM
      1  N          8.7300   15.1370    7.8340 N.3    35  LEU35      -0.1231
      2  CA         8.5220   13.7370    8.1820 C.3    35  LEU35       0.1693
      3  C          9.6880   12.8670    7.7400 C.2    35  LEU35       0.2593
      4  O          9.8020   11.6950    8.1310 O.2    35  LEU35      -0.2718
      5  CB         7.2760   13.2240    7.4790 C.3    35  LEU35       0.0284
      6  CG         5.9490   13.9140    7.7630 C.3    35  LEU35       0.0019
      7  CD1        4.9310   13.3840    6.7610 C.3    35  LEU35       0.0001
      8  CD2        5.5070   13.6530    9.1900 C.3    35  LEU35       0.0001
      9  N         10.5300   13.4340    6.8830 N.am   36  GLY36      -0.1942
     10  CA        11.6460   12.6890    6.3450 C.3    36  GLY36       0.2014
     11  C         12.5730   13.6550    5.6650 C.2    36  GLY36       0.2640
     12  O         12.1860   14.7450    5.2610 O.2    36  GLY36      -0.2714
     13  N         13.8070   13.2470    5.4890 N.am   37  THR37      -0.1936
     14  CA        14.7600   14.1480    4.9020 C.3    37  THR37       0.2028
     15  C         15.5930   13.4020    3.8380 C.2    37  THR37       0.2643
     16  O         15.5140   12.1750    3.7230 O.2    37  THR37      -0.2714
     17  CB        15.6000   14.7030    6.0450 C.3    37  THR37       0.1808
     18  OG1       16.5860   15.5890    5.5370 O.3    37  THR37      -0.2208
     19  CG2       16.2840   13.5740    6.7760 C.3    37  THR37       0.0379
     20  N         16.3110   14.1270    2.9950 N.am   38  GLY38      -0.1939
     21  CA        17.0960   13.4470    1.9900 C.3    38  GLY38       0.2014
     22  C         18.1140   14.3250    1.3090 C.2    38  GLY38       0.2640
     23  O         18.0860   15.5420    1.4560 O.2    38  GLY38      -0.2714
     24  N         18.9540   13.7060    0.4870 N.am   39  SER39      -0.1935
     25  CA        20.0130   14.4010   -0.2390 C.3    39  SER39       0.2055
     26  C         19.6440   15.7640   -0.7870 C.2    39  SER39       0.2643
     27  O         20.4230   16.6890   -0.6960 O.2    39  SER39      -0.2714
     28  CB        20.4990   13.5360   -1.3920 C.3    39  SER39       0.2130
     29  OG        20.1850   12.1750   -1.1440 O.3    39  SER39      -0.2179
     30  N         18.4510   15.9130   -1.3430 N.am   40  PHE40      -0.1959
     31  CA        18.1000   17.2130   -1.9130 C.3    40  PHE40       0.1771
     32  C         16.7070   17.7630   -1.6250 C.2    40  PHE40       0.2620
     33  O         16.1910   18.6030   -2.3870 O.2    40  PHE40      -0.2715
     34  CB        18.3690   17.2060   -3.4090 C.3    40  PHE40       0.0574
     35  CG        18.0370   15.9130   -4.0630 C.ar   40  PHE40      -0.0200
     36  CD1       16.7220   15.5630   -4.3010 C.ar   40  PHE40      -0.0042
     37  CD2       19.0420   15.0550   -4.4720 C.ar   40  PHE40      -0.0042
     38  CE1       16.4190   14.3900   -4.9360 C.ar   40  PHE40      -0.0003
     39  CE2       18.7340   13.8750   -5.1070 C.ar   40  PHE40      -0.0003
     40  CZ        17.4240   13.5470   -5.3410 C.ar   40  PHE40      -0.0000
     41  N         16.1350   17.3280   -0.5030 N.am   41  GLY41      -0.1940
     42  CA        14.8290   17.8000   -0.0990 C.3    41  GLY41       0.2014
     43  C         14.3590   17.1670    1.1970 C.2    41  GLY41       0.2639
     44  O         15.0910   16.4070    1.8330 O.2    41  GLY41      -0.2714
     45  N         13.1340   17.5110    1.5860 N.am   42  ARG42      -0.1963
     46  CA        12.4890   16.9900    2.7860 C.3    42  ARG42       0.1729
     47  C         10.9840   16.8270    2.4930 C.2    42  ARG42       0.2616
     48  O         10.4250   17.5150    1.6410 O.2    42  ARG42      -0.2715
     49  CB        12.7100   17.9480    3.9650 C.3    42  ARG42       0.0348
     50  CG        12.1290   19.3570    3.8050 C.3    42  ARG42       0.0492
     51  CD        12.9950   20.4090    4.5110 C.3    42  ARG42       0.2205
     52  NE        13.1550   20.1300    5.9400 N.pl3  42  ARG42      -0.0865
     53  CZ        14.3180   19.9870    6.5890 C.cat  42  ARG42       0.5346
     54  NH1       15.4900   20.1050    5.9680 N.pl3  42  ARG42       0.1354
     55  NH2       14.3100   19.6260    7.8640 N.pl3  42  ARG42       0.1354
     56  N         10.3530   15.8510    3.1220 N.am   43  VAL43      -0.1977
     57  CA         8.9320   15.6540    2.9400 C.3    43  VAL43       0.1596
     58  C          8.3050   16.3110    4.1480 C.2    43  VAL43       0.2287
     59  O          8.7360   16.0720    5.2690 O.2    43  VAL43      -0.2864
     60  CB         8.5700   14.1920    2.9600 C.3    43  VAL43       0.0276
     61  CG1        7.0630   14.0320    2.7920 C.3    43  VAL43       0.0022
     62  CG2        9.3610   13.4510    1.8960 C.3    43  VAL43       0.0022
     63  N          1.4650   14.8670    2.3340 N.3    56  ALA56      -0.1245
     64  CA         2.9040   14.8630    2.5500 C.3    56  ALA56       0.1562
     65  C          3.3720   15.5720    1.2900 C.2    56  ALA56       0.2260
     66  O          3.0370   15.1470    0.1970 O.2    56  ALA56      -0.2867
     67  CB         3.4250   13.4490    2.5750 C.3    56  ALA56       0.0290
     68  N          6.4890   16.7360   -0.9920 N.3    58  LYS58      -0.1245
     69  CA         7.9150   16.5050   -1.1930 C.3    58  LYS58       0.1561
     70  C          8.4930   17.7630   -1.8010 C.2    58  LYS58       0.2260
     71  O          7.9620   18.2710   -2.7730 O.2    58  LYS58      -0.2867
     72  CB         8.1190   15.3360   -2.1240 C.3    58  LYS58       0.0271
     73  CG         9.5500   14.8960   -2.2630 C.3    58  LYS58       0.0035
     74  CD         9.5610   13.4740   -2.7730 C.3    58  LYS58       0.0206
     75  CE        10.9590   12.9400   -2.9300 C.3    58  LYS58       0.1093
     76  NZ        10.8770   11.4980   -3.2270 N.3    58  LYS58      -0.1314
     77  N         11.7260   19.3140   -3.6460 N.3    60  LEU60      -0.1245
     78  CA        13.0380   19.0690   -4.2450 C.3    60  LEU60       0.1561
     79  C         13.7140   20.3840   -4.5870 C.2    60  LEU60       0.2260
     80  O         13.1340   21.2380   -5.2080 O.2    60  LEU60      -0.2867
     81  CB        12.9000   18.2370   -5.5200 C.3    60  LEU60       0.0270
     82  CG        12.3140   16.8090   -5.5520 C.3    60  LEU60       0.0019
     83  CD1       13.1700   15.8410   -4.7600 C.3    60  LEU60       0.0001
     84  CD2       10.8960   16.7980   -5.0220 C.3    60  LEU60       0.0001
     85  N          1.4450    5.1040   -2.9060 N.3    90  VAL90      -0.1245
     86  CA         0.8670    6.3580   -2.4290 C.3    90  VAL90       0.1561
     87  C          0.3760    7.2220   -3.5840 C.2    90  VAL90       0.2260
     88  O          1.0390    7.3160   -4.6200 O.2    90  VAL90      -0.2867
     89  CB         1.8310    7.2210   -1.6020 C.3    90  VAL90       0.0252
     90  CG1        1.8330    6.7780   -0.1600 C.3    90  VAL90       0.0019
     91  CG2        3.2260    7.1700   -2.1980 C.3    90  VAL90       0.0019
     92  N          1.6220   14.4280   -1.9300 N.3   106  MET106     -0.1230
     93  CA         1.0760   13.0810   -1.8660 C.3   106  MET106      0.1702
     94  C          0.1820   12.9250   -0.6760 C.2   106  MET106      0.2592
     95  O         -0.0190   13.8510    0.0920 O.2   106  MET106     -0.2718
     96  CB         2.1940   12.0410   -1.7680 C.3   106  MET106      0.0401
     97  CG         2.9730   11.9040   -3.0250 C.3   106  MET106      0.0596
     98  SD         4.6260   11.4730   -2.6950 S.3   106  MET106     -0.1393
     99  CE         5.2730   13.0390   -2.1850 C.3   106  MET106      0.0692
    100  N         -0.3400   11.7250   -0.5220 N.am  107  GLU107     -0.1966
    101  CA        -1.2270   11.3960    0.5650 C.3   107  GLU107      0.1733
    102  C         -0.4660   11.0500    1.8630 C.2   107  GLU107      0.2616
    103  O          0.4620   10.1970    1.8770 O.2   107  GLU107     -0.2715
    104  CB        -2.1110   10.2530    0.1180 C.3   107  GLU107      0.0429
    105  CG        -2.9880    9.7180    1.1730 C.3   107  GLU107      0.1163
    106  CD        -4.0190    8.8050    0.5900 C.2   107  GLU107      0.3649
    107  OE1       -3.6200    7.7550    0.0200 O.co2 107  GLU107     -0.2457
    108  OE2       -5.2210    9.1620    0.6670 O.co2 107  GLU107     -0.2457
    109  N         -0.8740   11.7200    2.9490 N.am  108  TYR108     -0.1960
    110  CA        -0.2600   11.5300    4.2480 C.3   108  TYR108      0.1771
    111  C         -0.6040   10.1560    4.8260 C.2   108  TYR108      0.2619
    112  O         -1.7560    9.8720    5.1200 O.2   108  TYR108     -0.2715
    113  CB        -0.6820   12.6670    5.1900 C.3   108  TYR108      0.0574
    114  CG        -0.0580   12.5610    6.5710 C.ar  108  TYR108     -0.0198
    115  CD1        1.3050   12.6830    6.7450 C.ar  108  TYR108     -0.0009
    116  CD2       -0.8250   12.2380    7.6800 C.ar  108  TYR108     -0.0009
    117  CE1        1.8870   12.4730    7.9720 C.ar  108  TYR108      0.0417
    118  CE2       -0.2450   12.0240    8.9220 C.ar  108  TYR108      0.0417
    119  CZ         1.1050   12.1390    9.0550 C.ar  108  TYR108      0.1957
    120  OH         1.6910   11.8820   10.2600 O.3   108  TYR108     -0.2866
    121  N          0.3770    9.2700    4.8970 N.am  109  VAL109     -0.1977
    122  CA         0.1550    7.9340    5.4380 C.3   109  VAL109      0.1596
    123  C          0.5350    8.0100    6.9080 C.2   109  VAL109      0.2287
    124  O          1.7080    8.0590    7.2600 O.2   109  VAL109     -0.2864
    125  CB         1.0050    6.8550    4.7160 C.3   109  VAL109      0.0276
    126  CG1        0.6370    5.4520    5.2310 C.3   109  VAL109      0.0022
    127  CG2        0.7990    6.9280    3.2030 C.3   109  VAL109      0.0022
    128  N          6.8790    4.6570    9.1750 N.3   113  GLU113     -0.1245
    129  CA         7.6130    3.7310    8.3260 C.3   113  GLU113      0.1567
    130  C          7.6450    2.3260    8.8750 C.2   113  GLU113      0.2260
    131  O          7.5480    2.1340   10.0780 O.2   113  GLU113     -0.2867
    132  CB         9.0370    4.2290    8.0980 C.3   113  GLU113      0.0388
    133  CG         9.1290    5.6290    7.4490 C.3   113  GLU113      0.1160
    134  CD        10.5140    6.1920    7.5380 C.2   113  GLU113      0.3649
    135  OE1       11.4150    5.4000    7.8790 O.co2 113  GLU113     -0.2457
    136  OE2       10.7120    7.4090    7.2940 O.co2 113  GLU113     -0.2457
    137  N         13.0590   -1.0760    0.4830 N.3   154  LYS154     -0.1245
    138  CA        13.6800   -1.1450    1.7980 C.3   154  LYS154      0.1561
    139  C         12.5890   -0.6910    2.7510 C.2   154  LYS154      0.2260
    140  O         11.6230   -0.0560    2.3200 O.2   154  LYS154     -0.2867
    141  CB        14.8970   -0.2270    1.9020 C.3   154  LYS154      0.0271
    142  CG        14.5920    1.2400    1.6620 C.3   154  LYS154      0.0035
    143  CD        15.8630    2.0550    1.5020 C.3   154  LYS154      0.0206
    144  CE        15.5200    3.4410    1.0390 C.3   154  LYS154      0.1093
    145  NZ        16.7050    4.2720    0.8550 N.3   154  LYS154     -0.1314
    146  N         12.4480    1.5800    4.8810 N.3   156  GLU156     -0.1231
    147  CA        12.3400    3.0210    4.9710 C.3   156  GLU156      0.1699
    148  C         11.3600    3.5650    3.9560 C.2   156  GLU156      0.2592
    149  O         10.8170    4.6570    4.1330 O.2   156  GLU156     -0.2718
    150  CB        13.6980    3.6870    4.7160 C.3   156  GLU156      0.0402
    151  CG        14.8160    3.4220    5.7270 C.3   156  GLU156      0.1161
    152  CD        15.5860    2.1170    5.5020 C.2   156  GLU156      0.3649
    153  OE1       14.9720    1.0610    5.2660 O.co2 156  GLU156     -0.2457
    154  OE2       16.8290    2.1240    5.6270 O.co2 156  GLU156     -0.2457
    155  N         11.1610    2.8470    2.8560 N.am  157  ASN157     -0.1974
    156  CA        10.2380    3.3330    1.8000 C.3   157  ASN157      0.1688
    157  C          8.8300    2.7790    1.8230 C.2   157  ASN157      0.2292
    158  O          8.0450    3.0890    0.9370 O.2   157  ASN157     -0.2864
    159  CB        10.8210    3.1430    0.3800 C.3   157  ASN157      0.1181
    160  CG        11.9610    4.0960    0.0800 C.2   157  ASN157      0.2629
    161  OD1       12.2270    5.0100    0.8540 O.2   157  ASN157     -0.2716
    162  ND2       12.6530    3.8690   -1.0330 N.am  157  ASN157     -0.0877
    163  N          5.3940    2.4420    4.0200 N.3   159  LEU159     -0.1245
    164  CA         4.6680    3.0420    5.1070 C.3   159  LEU159      0.1561
    165  C          3.4440    2.1840    5.4600 C.2   159  LEU159      0.2260
    166  O          2.9660    1.4170    4.6160 O.2   159  LEU159     -0.2867
    167  CB         4.2600    4.4390    4.6690 C.3   159  LEU159      0.0270
    168  CG         5.4650    5.3780    4.5320 C.3   159  LEU159      0.0019
    169  CD1        5.1590    6.6080    3.7160 C.3   159  LEU159      0.0001
    170  CD2        5.8360    5.8140    5.9320 C.3   159  LEU159      0.0001
    171  N          6.2150    4.3780   -1.0940 N.3   169  THR169     -0.1203
    172  CA         6.4870    5.7810   -1.4520 C.3   169  THR169      0.1994
    173  C          7.8190    5.7710   -2.2110 C.2   169  THR169      0.2617
    174  O          8.3810    4.7170   -2.5100 O.2   169  THR169     -0.2717
    175  CB         6.6510    6.6740   -0.1870 C.3   169  THR169      0.1784
    176  OG1        7.4520    6.0050    0.8050 O.3   169  THR169     -0.2211
    177  CG2        5.3540    6.9550    0.4240 C.3   169  THR169      0.0376
    178  N          8.3200    6.9580   -2.5080 N.am  170  ASP170     -0.1973
    179  CA         9.6210    7.1290   -3.1480 C.3   170  ASP170      0.1709
    180  C          9.8460    6.4130   -4.4650 C.2   170  ASP170      0.2293
    181  O         10.4090    5.3240   -4.4840 O.2   170  ASP170     -0.2864
    182  CB        10.7110    6.7010   -2.1700 C.3   170  ASP170      0.1436
    183  CG        12.0430    7.4130   -2.4060 C.2   170  ASP170      0.3671
    184  OD1       12.1630    8.3750   -3.2180 O.co2 170  ASP170     -0.2456
    185  OD2       13.0020    6.9780   -1.7410 O.co2 170  ASP170     -0.2456
    186  N          6.5410    9.1690   13.4420 N.3   312  PHE312     -0.1241
    187  CA         7.6930    9.6280   12.6790 C.3   312  PHE312      0.1605
    188  C          8.7080   10.2710   13.5930 C.2   312  PHE312      0.2264
    189  O          8.3220   10.8990   14.5790 O.2   312  PHE312     -0.2867
    190  CB         7.2200   10.6650   11.6800 C.3   312  PHE312      0.0534
    191  CG         6.2590   10.1230   10.6690 C.ar  312  PHE312     -0.0203
    192  CD1        6.7250    9.4830    9.5260 C.ar  312  PHE312     -0.0042
    193  CD2        4.8830   10.2570   10.8600 C.ar  312  PHE312     -0.0042
    194  CE1        5.8500    8.9880    8.5910 C.ar  312  PHE312     -0.0003
    195  CE2        3.9790    9.7590    9.9220 C.ar  312  PHE312     -0.0003
    196  CZ         4.4600    9.1260    8.7850 C.ar  312  PHE312     -0.0000
@<TRIPOS>BOND
     1    82    81    1
     2    82    84    1
     3    82    83    1
     4    81    78    1
     5    40    39   ar
     6    40    38   ar
     7    80    79    2
     8    39    37   ar
     9    38    36   ar
    10    88    87    2
    11    79    78    1
    12   181   180    2
    13    37    35   ar
    14   180   179    1
    15    36    35   ar
    16    78    77    1
    17    35    34    1
    18    87    86    1
    19    34    31    1
    20    76    75    1
    21   184   183   ar
    22   179   178    1
    23   179   182    1
    24    97    98    1
    25    97    96    1
    26    75    74    1
    27    85    86    1
    28    74    73    1
    29    71    70    2
    30    98    99    1
    31   174   173    2
    32   178   173   am
    33    86    89    1
    34   183   182    1
    35   183   185   ar
    36    33    32    2
    37    73    72    1
    38   173   172    1
    39    91    89    1
    40    72    69    1
    41    92    93    1
    42    31    32    1
    43    31    30    1
    44    93    96    1
    45    93    94    1
    46    70    69    1
    47    32    41   am
    48    89    90    1
    49   172   171    1
    50   172   175    1
    51    28    29    1
    52    28    25    1
    53    30    26   am
    54    69    68    1
    55   162   160   am
    56    26    27    2
    57    26    25    1
    58    94   100   am
    59    94    95    2
    60   100   101    1
    61    41    42    1
    62    25    24    1
    63   175   177    1
    64   175   176    1
    65    42    43    1
    66   107   106   ar
    67   160   159    1
    68   160   161    2
    69   104   101    1
    70   104   105    1
    71    66    65    2
    72   159   156    1
    73   137   138    1
    74    24    22   am
    75   101   102    1
    76   106   108   ar
    77   106   105    1
    78   145   144    1
    79   158   157    2
    80   144   143    1
    81    43    45   am
    82    43    44    2
    83    65    64    1
    84    22    23    2
    85    22    21    1
    86   143   142    1
    87    45    46    1
    88    48    47    2
    89   142   141    1
    90   138   141    1
    91   138   139    1
    92   156   157    1
    93   156   155    1
    94   102   103    2
    95   102   109   am
    96    62    60    1
    97    21    20    1
    98   140   139    2
    99    63    64    1
   100    47    46    1
   101    47    56   am
   102    64    67    1
   103    46    49    1
   104    61    60    1
   105   155   148   am
   106    57    60    1
   107    57    56    1
   108    57    58    1
   109   109   110    1
   110    20    15   am
   111   127   125    1
   112   169   168    1
   113    16    15    2
   114    50    49    1
   115    50    51    1
   116    15    14    1
   117   148   149    2
   118   148   147    1
   119   163   164    1
   120    58    59    2
   121   110   111    1
   122   110   113    1
   123    51    52    1
   124   168   167    1
   125   168   170    1
   126   166   165    2
   127   167   164    1
   128   150   147    1
   129   150   151    1
   130   125   126    1
   131   125   122    1
   132   111   121   am
   133   111   112    2
   134   146   147    1
   135   121   122    1
   136    14    13    1
   137    14    17    1
   138   164   165    1
   139   113   114    1
   140    12    11    2
   141   153   152   ar
   142   122   123    1
   143    13    11   am
   144   152   154   ar
   145   152   151    1
   146    18    17    1
   147    11    10    1
   148    52    53    2
   149    54    53    1
   150    17    19    1
   151    10     9    1
   152   114   115   ar
   153   114   116   ar
   154    53    55    1
   155   115   117   ar
   156     7     6    1
   157     9     3   am
   158   123   124    2
   159   136   134   ar
   160   133   134    1
   161   133   132    1
   162     5     6    1
   163     5     2    1
   164   134   135   ar
   165   116   118   ar
   166     3     4    2
   167     3     2    1
   168     6     8    1
   169     1     2    1
   170   117   119   ar
   171   132   129    1
   172   129   130    1
   173   129   128    1
   174   194   196   ar
   175   194   192   ar
   176   196   195   ar
   177   130   131    2
   178   118   119   ar
   179   119   120    1
   180   192   191   ar
   181   195   193   ar
   182   191   193   ar
   183   191   190    1
   184   190   187    1
   185   187   186    1
   186   187   188    1
   187   188   189    2
