@<TRIPOS>MOLECULE
tmp/1ye3A00.pdb
 94 88 0 0 0
SMALL
GASTEIGER

@<TRIPOS>ATOM
      1  N          5.2720    7.9520   22.5890 N.3    48  SER48      -0.1217
      2  CA         3.8470    7.7020   22.5070 C.3    48  SER48       0.1889
      3  C          3.3730    7.2100   21.1390 C.2    48  SER48       0.2288
      4  O          2.4190    6.4190   21.0550 O.2    48  SER48      -0.2866
      5  CB         3.0410    8.9250   22.9230 C.3    48  SER48       0.2089
      6  OG         3.2960    9.2200   24.2820 O.3    48  SER48      -0.2183
      7  N          4.0090    3.6470   21.1840 N.3    51  HIS51      -0.1241
      8  CA         2.9770    2.9450   21.9680 C.3    51  HIS51       0.1621
      9  C          1.7490    2.5900   21.1180 C.2    51  HIS51       0.2264
     10  O          1.0670    1.6090   21.3810 O.2    51  HIS51      -0.2867
     11  CB         2.5880    3.7590   23.2090 C.3    51  HIS51       0.0745
     12  CG         3.6910    3.9070   24.2060 C.ar   51  HIS51       0.0817
     13  ND1        3.7400    4.9420   25.1160 N.ar   51  HIS51      -0.2268
     14  CD2        4.7940    3.1550   24.4350 C.ar   51  HIS51       0.1154
     15  CE1        4.8160    4.8110   25.8710 C.ar   51  HIS51       0.1986
     16  NE2        5.4690    3.7310   25.4830 N.ar   51  HIS51      -0.2212
     17  N         -0.9570    1.9430   23.5900 N.3    57  LEU57      -0.1245
     18  CA        -1.8500    3.0990   23.5460 C.3    57  LEU57       0.1561
     19  C         -2.9290    2.6930   22.5410 C.2    57  LEU57       0.2260
     20  O         -2.6780    2.6130   21.3360 O.2    57  LEU57      -0.2867
     21  CB        -1.1080    4.3880   23.1210 C.3    57  LEU57       0.0270
     22  CG        -1.3410    5.7670   23.7700 C.3    57  LEU57       0.0019
     23  CD1       -0.9650    6.9450   22.8840 C.3    57  LEU57       0.0001
     24  CD2       -2.7140    6.0380   24.4810 C.3    57  LEU57       0.0001
     25  N          2.1720   13.3510   16.5760 N.3    67  HIS67      -0.1241
     26  CA         1.5350   14.3830   17.3910 C.3    67  HIS67       0.1621
     27  C          2.4440   15.5580   17.7740 C.2    67  HIS67       0.2264
     28  O          1.9540   16.5380   18.3680 O.2    67  HIS67      -0.2867
     29  CB         0.8900   13.7530   18.6410 C.3    67  HIS67       0.0745
     30  CG         1.8790   13.1200   19.5730 C.ar   67  HIS67       0.0817
     31  ND1        2.4620   11.8920   19.3280 N.ar   67  HIS67      -0.2268
     32  CD2        2.3740   13.5420   20.7630 C.ar   67  HIS67       0.1154
     33  CE1        3.2830   11.6030   20.3210 C.ar   67  HIS67       0.1986
     34  NE2        3.2300   12.5770   21.2160 N.ar   67  HIS67      -0.2212
     35  N         -1.8840   18.3760   20.6050 N.3    93  PHE93      -0.1241
     36  CA        -2.4940   17.0650   20.9160 C.3    93  PHE93       0.1605
     37  C         -3.3910   17.1340   22.1450 C.2    93  PHE93       0.2264
     38  O         -4.2900   16.3200   22.2870 O.2    93  PHE93      -0.2867
     39  CB        -1.4760   15.9170   21.0240 C.3    93  PHE93       0.0534
     40  CG        -0.6830   15.9160   22.2970 C.ar   93  PHE93      -0.0203
     41  CD1       -1.1820   15.3350   23.4600 C.ar   93  PHE93      -0.0042
     42  CD2        0.6020   16.4530   22.3140 C.ar   93  PHE93      -0.0042
     43  CE1       -0.4300   15.3670   24.6630 C.ar   93  PHE93      -0.0003
     44  CE2        1.3520   16.4750   23.4690 C.ar   93  PHE93      -0.0003
     45  CZ         0.8370   15.9190   24.6480 C.ar   93  PHE93      -0.0000
     46  N         -7.7540   11.6320   23.9710 N.3   116  LEU116     -0.1245
     47  CA        -6.8680   10.7310   24.6630 C.3   116  LEU116      0.1561
     48  C         -7.5760    9.7890   25.6120 C.2   116  LEU116      0.2260
     49  O         -7.1960    8.6300   25.6690 O.2   116  LEU116     -0.2867
     50  CB        -5.8220   11.5280   25.4360 C.3   116  LEU116      0.0270
     51  CG        -4.7420   10.7250   26.1420 C.3   116  LEU116      0.0019
     52  CD1       -4.0990    9.7290   25.1600 C.3   116  LEU116      0.0001
     53  CD2       -3.7230   11.7010   26.7030 C.3   116  LEU116      0.0001
     54  N         -5.1320   11.6380   18.1230 N.3   141  LEU141     -0.1245
     55  CA        -5.1180   12.7770   19.0720 C.3   141  LEU141      0.1561
     56  C         -5.4490   14.1140   18.3970 C.2   141  LEU141      0.2260
     57  O         -4.9620   15.1760   18.8140 O.2   141  LEU141     -0.2867
     58  CB        -3.7700   12.8830   19.8130 C.3   141  LEU141      0.0270
     59  CG        -3.2590   11.6450   20.5400 C.3   141  LEU141      0.0019
     60  CD1       -1.9620   11.9730   21.2740 C.3   141  LEU141      0.0001
     61  CD2       -4.3560   11.0420   21.4300 C.3   141  LEU141      0.0001
     62  N          5.8290   12.4130   35.1300 N.3   292  VAL292     -0.1231
     63  CA         5.8640   13.1390   33.8600 C.3   292  VAL292      0.1692
     64  C          5.2830   12.2320   32.7720 C.2   292  VAL292      0.2593
     65  O          4.7350   12.6970   31.7570 O.2   292  VAL292     -0.2718
     66  CB         7.2910   13.6210   33.5480 C.3   292  VAL292      0.0266
     67  CG1        7.3450   14.3650   32.2210 C.3   292  VAL292      0.0020
     68  CG2        7.8130   14.5290   34.6920 C.3   292  VAL292      0.0020
     69  N          5.3370   10.9310   32.9970 N.am  293  GLY293     -0.1942
     70  CA         4.7160   10.0140   32.0320 C.3   293  GLY293      0.2014
     71  C          4.3770    8.7200   32.7190 C.2   293  GLY293      0.2638
     72  O          4.9850    8.3780   33.7250 O.2   293  GLY293     -0.2714
     73  N          3.4090    8.0140   32.1540 N.am  294  VAL294     -0.1977
     74  CA         3.0570    6.6610   32.5590 C.3   294  VAL294      0.1596
     75  C          2.8810    5.8160   31.3020 C.2   294  VAL294      0.2287
     76  O          2.0810    6.1900   30.4500 O.2   294  VAL294     -0.2864
     77  CB         1.7400    6.6420   33.3570 C.3   294  VAL294      0.0276
     78  CG1        1.4890    5.2600   33.9470 C.3   294  VAL294      0.0022
     79  CG2        1.7910    7.6850   34.4860 C.3   294  VAL294      0.0022
     80  N          1.1580    3.5430   28.8710 N.3   296  PRO296     -0.2116
     81  CA        -0.2900    3.3850   28.7460 C.3   296  PRO296      0.1372
     82  C         -0.8380    2.0160   29.1490 C.2   296  PRO296      0.2244
     83  O         -2.0410    1.9010   29.3940 O.2   296  PRO296     -0.2868
     84  CB        -0.5590    3.6590   27.2620 C.3   296  PRO296      0.0268
     85  CG         0.7230    3.5060   26.5750 C.3   296  PRO296      0.0207
     86  CD         1.8010    3.8310   27.5740 C.3   296  PRO296      0.0892
     87  N         -0.3730   16.2090   32.0460 N.3   318  ILE318     -0.1245
     88  CA        -0.2040   16.0240   30.6160 C.3   318  ILE318      0.1561
     89  C          0.3200   17.3560   30.0210 C.2   318  ILE318      0.2260
     90  O         -0.0420   18.4530   30.4600 O.2   318  ILE318     -0.2867
     91  CB        -1.5670   15.5140   29.9470 C.3   318  ILE318      0.0252
     92  CG1       -1.9660   14.1300   30.5130 C.3   318  ILE318      0.0019
     93  CG2       -1.4570   15.4610   28.4270 C.3   318  ILE318      0.0019
     94  CD1       -3.3470   13.5670   30.0620 C.3   318  ILE318      0.0001
@<TRIPOS>BOND
     1    25    26    1
     2    26    27    1
     3    26    29    1
     4    27    28    2
     5    54    55    1
     6    56    57    2
     7    56    55    1
     8    29    30    1
     9    55    58    1
    10    31    30   ar
    11    31    33   ar
    12    30    32   ar
    13    58    59    1
    14    33    34   ar
    15    59    60    1
    16    59    61    1
    17    35    36    1
    18    32    34   ar
    19    36    39    1
    20    36    37    1
    21    39    40    1
    22     4     3    2
    23     9    10    2
    24     9     8    1
    25     3     2    1
    26     7     8    1
    27    20    19    2
    28     8    11    1
    29    37    38    2
    30    40    42   ar
    31    40    41   ar
    32    42    44   ar
    33     2     1    1
    34     2     5    1
    35    19    18    1
    36    23    22    1
    37     5     6    1
    38    21    18    1
    39    21    22    1
    40    11    12    1
    41    41    43   ar
    42    44    45   ar
    43    18    17    1
    44    22    24    1
    45    46    47    1
    46    12    14   ar
    47    12    13   ar
    48    14    16   ar
    49    45    43   ar
    50    47    50    1
    51    47    48    1
    52    13    15   ar
    53    52    51    1
    54    50    51    1
    55    16    15   ar
    56    48    49    2
    57    51    53    1
    58    85    84    1
    59    85    86    1
    60    84    81    1
    61    86    80    1
    62    93    91    1
    63    81    80    1
    64    81    82    1
    65    82    83    2
    66    91    92    1
    67    91    88    1
    68    89    90    2
    69    89    88    1
    70    94    92    1
    71    76    75    2
    72    88    87    1
    73    75    74    1
    74    65    64    2
    75    70    71    1
    76    70    69    1
    77    73    74    1
    78    73    71   am
    79    67    66    1
    80    74    77    1
    81    71    72    2
    82    64    69   am
    83    64    63    1
    84    77    78    1
    85    77    79    1
    86    66    63    1
    87    66    68    1
    88    63    62    1
