@<TRIPOS>MOLECULE
tmp/1yedD00.pdb
 108 107 0 0 0
SMALL
GASTEIGER

@<TRIPOS>ATOM
      1  N         18.9710   70.1740   42.0730 N.3    35  HIS35      -0.1241
      2  CA        18.6540   68.7940   41.6830 C.3    35  HIS35       0.1621
      3  C         19.7980   67.8400   42.0420 C.2    35  HIS35       0.2264
      4  O         20.9700   68.2030   41.9250 O.2    35  HIS35      -0.2867
      5  CB        18.4270   68.7050   40.1680 C.3    35  HIS35       0.0745
      6  CG        17.2970   69.5510   39.6470 C.ar   35  HIS35       0.0817
      7  ND1       17.2940   70.9260   39.7090 N.ar   35  HIS35      -0.2268
      8  CD2       16.1710   69.2040   38.9750 C.ar   35  HIS35       0.1154
      9  CE1       16.2170   71.3940   39.0950 C.ar   35  HIS35       0.1986
     10  NE2       15.5240   70.3710   38.6400 N.ar   35  HIS35      -0.2212
     11  N         21.5010   63.9350   41.3110 N.3    37  LEU37      -0.1245
     12  CA        21.5260   62.8120   40.3720 C.3    37  LEU37       0.1561
     13  C         22.3740   61.6210   40.8010 C.2    37  LEU37       0.2260
     14  O         23.3440   61.7670   41.5400 O.2    37  LEU37      -0.2867
     15  CB        22.0230   63.2730   39.0030 C.3    37  LEU37       0.0270
     16  CG        21.1360   64.1510   38.1270 C.3    37  LEU37       0.0019
     17  CD1       21.0470   65.5280   38.7320 C.3    37  LEU37       0.0001
     18  CD2       21.7150   64.2290   36.7170 C.3    37  LEU37       0.0001
     19  N         17.4190   60.5790   37.7210 N.3    47  TRP47      -0.1241
     20  CA        17.0940   61.8220   38.4060 C.3    47  TRP47       0.1605
     21  C         16.5100   61.4170   39.7700 C.2    47  TRP47       0.2264
     22  O         15.5410   60.6680   39.8180 O.2    47  TRP47      -0.2867
     23  CB        16.0770   62.5970   37.5640 C.3    47  TRP47       0.0550
     24  CG        15.6540   63.8900   38.1600 C.ar   47  TRP47       0.0003
     25  CD1       16.3060   65.0830   38.0740 C.ar   47  TRP47       0.0946
     26  CD2       14.5020   64.1170   38.9820 C.ar   47  TRP47       0.0152
     27  NE1       15.6380   66.0370   38.8030 N.ar   47  TRP47      -0.2442
     28  CE2       14.5270   65.4720   39.3700 C.ar   47  TRP47       0.0810
     29  CE3       13.4510   63.3030   39.4320 C.ar   47  TRP47       0.0012
     30  CZ2       13.5430   66.0360   40.1910 C.ar   47  TRP47       0.0191
     31  CZ3       12.4630   63.8690   40.2560 C.ar   47  TRP47       0.0001
     32  CH2       12.5210   65.2200   40.6230 C.ar   47  TRP47       0.0015
     33  N         14.7080   67.0390   43.9020 N.3    50  ARG50      -0.1245
     34  CA        15.0620   68.4480   43.7990 C.3    50  ARG50       0.1563
     35  C         14.4790   69.2150   44.9890 C.2    50  ARG50       0.2260
     36  O         13.5020   68.7700   45.5990 O.2    50  ARG50      -0.2867
     37  CB        14.5370   69.0270   42.4790 C.3    50  ARG50       0.0307
     38  CG        13.0200   69.0810   42.3820 C.3    50  ARG50       0.0489
     39  CD        12.5770   69.4350   40.9730 C.3    50  ARG50       0.2205
     40  NE        11.5010   70.4220   40.9700 N.pl3  50  ARG50      -0.0865
     41  CZ        10.4410   70.3750   40.1690 C.cat  50  ARG50       0.5346
     42  NH1       10.2990   69.3800   39.3020 N.pl3  50  ARG50       0.1354
     43  NH2        9.5510   71.3590   40.1960 N.pl3  50  ARG50       0.1354
     44  N         23.1750   69.7530   41.2430 N.3    97  THR97      -0.1218
     45  CA        23.2780   70.8050   40.2510 C.3    97  THR97       0.1862
     46  C         22.2340   71.8970   40.3600 C.2    97  THR97       0.2287
     47  O         21.1340   71.6800   40.8790 O.2    97  THR97      -0.2866
     48  CB        23.1940   70.2110   38.8240 C.3    97  THR97       0.1770
     49  OG1       23.1990   71.2620   37.8520 O.3    97  THR97      -0.2211
     50  CG2       21.9350   69.3870   38.6480 C.3    97  THR97       0.0375
     51  N         20.3740   73.2900   38.0700 N.3    99  TRP99      -0.1241
     52  CA        19.8310   73.0820   36.7270 C.3    99  TRP99       0.1605
     53  C         19.4510   74.3530   35.9680 C.2    99  TRP99       0.2264
     54  O         19.7130   74.4630   34.7690 O.2    99  TRP99      -0.2867
     55  CB        18.6380   72.1200   36.8060 C.3    99  TRP99       0.0550
     56  CG        18.0900   71.6900   35.4820 C.ar   99  TRP99       0.0003
     57  CD1       16.7900   71.7420   35.0900 C.ar   99  TRP99       0.0946
     58  CD2       18.8240   71.1490   34.3730 C.ar   99  TRP99       0.0152
     59  NE1       16.6650   71.2730   33.8080 N.ar   99  TRP99      -0.2442
     60  CE2       17.8950   70.9020   33.3420 C.ar   99  TRP99       0.0810
     61  CE3       20.1740   70.8530   34.1500 C.ar   99  TRP99       0.0012
     62  CZ2       18.2670   70.3760   32.1040 C.ar   99  TRP99       0.0191
     63  CZ3       20.5480   70.3290   32.9150 C.ar   99  TRP99       0.0001
     64  CH2       19.5930   70.0970   31.9060 C.ar   99  TRP99       0.0015
     65  N         16.2130   75.6140   35.4230 N.3   101  PHE101     -0.1241
     66  CA        14.8750   75.7230   34.8570 C.3   101  PHE101      0.1605
     67  C         13.9680   76.5140   35.7860 C.2   101  PHE101      0.2264
     68  O         14.0400   76.3870   37.0060 O.2   101  PHE101     -0.2867
     69  CB        14.2510   74.3610   34.5570 C.3   101  PHE101      0.0534
     70  CG        12.9360   74.4590   33.8370 C.ar  101  PHE101     -0.0203
     71  CD1       12.8620   75.1040   32.6120 C.ar  101  PHE101     -0.0042
     72  CD2       11.7770   73.9300   34.3880 C.ar  101  PHE101     -0.0042
     73  CE1       11.6640   75.2280   31.9450 C.ar  101  PHE101     -0.0003
     74  CE2       10.5650   74.0460   33.7270 C.ar  101  PHE101     -0.0003
     75  CZ        10.5100   74.6980   32.4970 C.ar  101  PHE101     -0.0000
     76  N          7.0010   76.1010   33.8190 N.3   104  VAL104     -0.1245
     77  CA         6.3950   75.7850   32.5310 C.3   104  VAL104      0.1561
     78  C          5.9980   77.0800   31.8220 C.2   104  VAL104      0.2260
     79  O          5.9990   77.1460   30.5960 O.2   104  VAL104     -0.2867
     80  CB         5.1180   74.9100   32.7180 C.3   104  VAL104      0.0252
     81  CG1        4.4430   74.6690   31.3920 C.3   104  VAL104      0.0019
     82  CG2        5.4670   73.5860   33.3680 C.3   104  VAL104      0.0019
     83  N         15.7030   79.2970   31.0370 N.3   109  TYR109     -0.1241
     84  CA        16.7740   78.4370   31.5270 C.3   109  TYR109      0.1605
     85  C         18.0230   79.2000   31.9640 C.2   109  TYR109      0.2264
     86  O         18.7390   79.7640   31.1330 O.2   109  TYR109     -0.2867
     87  CB        17.1690   77.4120   30.4490 C.3   109  TYR109      0.0534
     88  CG        16.2700   76.1980   30.3450 C.ar  109  TYR109     -0.0201
     89  CD1       16.4700   75.0850   31.1630 C.ar  109  TYR109     -0.0009
     90  CD2       15.2290   76.1470   29.4220 C.ar  109  TYR109     -0.0009
     91  CE1       15.6610   73.9480   31.0630 C.ar  109  TYR109      0.0417
     92  CE2       14.4090   75.0140   29.3120 C.ar  109  TYR109      0.0417
     93  CZ        14.6320   73.9140   30.1360 C.ar  109  TYR109      0.1957
     94  OH        13.8530   72.7730   30.0260 O.3   109  TYR109     -0.2866
     95  N         27.2180   72.4100   37.9870 N.3   114  TRP114     -0.1241
     96  CA        27.2440   71.1010   38.6210 C.3   114  TRP114      0.1605
     97  C         28.3320   70.9770   39.6670 C.2   114  TRP114      0.2264
     98  O         29.3710   71.6170   39.5770 O.2   114  TRP114     -0.2867
     99  CB        27.4600   70.0100   37.5650 C.3   114  TRP114      0.0550
    100  CG        26.3840   69.9190   36.5350 C.ar  114  TRP114      0.0003
    101  CD1       26.1020   70.8290   35.5560 C.ar  114  TRP114      0.0946
    102  CD2       25.4020   68.8880   36.4180 C.ar  114  TRP114      0.0152
    103  NE1       24.9960   70.4350   34.8510 N.ar  114  TRP114     -0.2442
    104  CE2       24.5430   69.2460   35.3580 C.ar  114  TRP114      0.0810
    105  CE3       25.1590   67.6990   37.1150 C.ar  114  TRP114      0.0012
    106  CZ2       23.4550   68.4600   34.9780 C.ar  114  TRP114      0.0191
    107  CZ3       24.0750   66.9150   36.7370 C.ar  114  TRP114      0.0001
    108  CH2       23.2370   67.3010   35.6780 C.ar  114  TRP114      0.0015
@<TRIPOS>BOND
     1    92    90   ar
     2    92    93   ar
     3    90    88   ar
     4    94    93    1
     5    93    91   ar
     6    88    87    1
     7    88    89   ar
     8    87    84    1
     9    79    78    2
    10    83    84    1
    11    91    89   ar
    12    86    85    2
    13    81    80    1
    14    84    85    1
    15    78    77    1
    16    64    62   ar
    17    64    63   ar
    18    73    75   ar
    19    73    71   ar
    20    62    60   ar
    21    75    74   ar
    22    77    80    1
    23    77    76    1
    24    71    70   ar
    25    80    82    1
    26    63    61   ar
    27    60    59   ar
    28    60    58   ar
    29    74    72   ar
    30    59    57   ar
    31    70    72   ar
    32    70    69    1
    33    61    58   ar
    34    58    56   ar
    35    69    66    1
    36    54    53    2
    37   103   104   ar
    38   103   101   ar
    39    66    65    1
    40    66    67    1
    41   106   104   ar
    42   106   108   ar
    43    57    56   ar
    44   104   102   ar
    45    56    55    1
    46   101   100   ar
    47   108   107   ar
    48    67    68    2
    49    53    52    1
    50   102   100   ar
    51   102   105   ar
    52   100    99    1
    53    18    16    1
    54    52    55    1
    55    52    51    1
    56   107   105   ar
    57    23    24    1
    58    23    20    1
    59    99    96    1
    60    19    20    1
    61    49    48    1
    62    95    96    1
    63    25    24   ar
    64    25    27   ar
    65    16    17    1
    66    16    15    1
    67    24    26   ar
    68    20    21    1
    69    96    97    1
    70    10     8   ar
    71    10     9   ar
    72    50    48    1
    73    27    28   ar
    74    48    45    1
    75     8     6   ar
    76    26    28   ar
    77    26    29   ar
    78    15    12    1
    79     9     7   ar
    80    42    41    1
    81    28    30   ar
    82    29    31   ar
    83    98    97    2
    84     6     7   ar
    85     6     5    1
    86    21    22    2
    87     5     2    1
    88    41    43    1
    89    41    40    2
    90    30    32   ar
    91    45    46    1
    92    45    44    1
    93    31    32   ar
    94    46    47    2
    95    12    13    1
    96    12    11    1
    97    13    14    2
    98    40    39    1
    99    39    38    1
   100     2     3    1
   101     2     1    1
   102     4     3    2
   103    38    37    1
   104    37    34    1
   105    34    33    1
   106    34    35    1
   107    35    36    2
