@<TRIPOS>MOLECULE
tmp/1yeeA00.pdb
 99 96 0 0 0
SMALL
GASTEIGER

@<TRIPOS>ATOM
      1  N          6.7880  -19.2760    2.3660 N.3    31  TYR31      -0.1241
      2  CA         5.5640  -19.5830    3.0830 C.3    31  TYR31       0.1605
      3  C          4.9610  -20.8600    2.4950 C.2    31  TYR31       0.2264
      4  O          5.2840  -21.2510    1.3600 O.2    31  TYR31      -0.2867
      5  CB         4.5930  -18.4040    2.9640 C.3    31  TYR31       0.0534
      6  CG         3.5640  -18.3570    4.0600 C.ar   31  TYR31      -0.0201
      7  CD1        3.9420  -18.3240    5.3970 C.ar   31  TYR31      -0.0009
      8  CD2        2.2030  -18.3510    3.7580 C.ar   31  TYR31      -0.0009
      9  CE1        2.9830  -18.2840    6.4220 C.ar   31  TYR31       0.0417
     10  CE2        1.2250  -18.3110    4.7710 C.ar   31  TYR31       0.0417
     11  CZ         1.6200  -18.2740    6.1030 C.ar   31  TYR31       0.1957
     12  OH         0.6610  -18.1950    7.1000 O.3    31  TYR31      -0.2866
     13  N          7.1550  -13.5320    1.4470 N.3    37  TYR37      -0.1241
     14  CA         6.8160  -12.1620    1.7450 C.3    37  TYR37       0.1605
     15  C          8.0170  -11.3350    2.1650 C.2    37  TYR37       0.2264
     16  O          8.2920  -11.1940    3.3540 O.2    37  TYR37      -0.2867
     17  CB         5.7210  -12.1250    2.8200 C.3    37  TYR37       0.0534
     18  CG         4.4820  -12.9040    2.4670 C.ar   37  TYR37      -0.0201
     19  CD1        3.5290  -12.3780    1.6060 C.ar   37  TYR37      -0.0009
     20  CD2        4.2400  -14.1580    3.0420 C.ar   37  TYR37      -0.0009
     21  CE1        2.3540  -13.0690    1.3250 C.ar   37  TYR37       0.0417
     22  CE2        3.0580  -14.8740    2.7740 C.ar   37  TYR37       0.0417
     23  CZ         2.1110  -14.3200    1.9140 C.ar   37  TYR37       0.1957
     24  OH         0.9110  -14.9980    1.6480 O.3    37  TYR37      -0.2866
     25  N          9.7690   -7.5940    1.3260 N.3    39  SER39      -0.1217
     26  CA         9.5730   -6.2970    0.7020 C.3    39  SER39       0.1889
     27  C         10.8010   -5.4220    0.9350 C.2    39  SER39       0.2288
     28  O         11.5990   -5.6940    1.8510 O.2    39  SER39      -0.2866
     29  CB         8.3340   -5.6140    1.3180 C.3    39  SER39       0.2089
     30  OG         7.1680   -6.4390    1.2100 O.3    39  SER39      -0.2183
     31  N         11.9380   -1.2110    1.2600 N.3    41  LEU41      -0.1245
     32  CA        11.4690    0.1560    1.4990 C.3    41  LEU41       0.1561
     33  C         12.6250    1.1170    1.3060 C.2    41  LEU41       0.2260
     34  O         13.7880    0.7340    1.4330 O.2    41  LEU41      -0.2867
     35  CB        11.0230    0.3430    2.9610 C.3    41  LEU41       0.0270
     36  CG         9.9550   -0.4450    3.7310 C.3    41  LEU41       0.0019
     37  CD1        8.7530    0.4120    3.9440 C.3    41  LEU41       0.0001
     38  CD2        9.5630   -1.7130    3.0410 C.3    41  LEU41       0.0001
     39  N         12.0810   -6.1780    4.8000 N.3    94  VAL94      -0.1231
     40  CA        11.1920   -6.5550    5.9040 C.3    94  VAL94       0.1692
     41  C         10.6530   -7.9140    5.4990 C.2    94  VAL94       0.2592
     42  O         10.4700   -8.1820    4.2960 O.2    94  VAL94      -0.2718
     43  CB         9.9050   -5.6970    5.9490 C.3    94  VAL94       0.0266
     44  CG1        9.4030   -5.5460    7.3570 C.3    94  VAL94       0.0020
     45  CG2       10.0460   -4.4220    5.2210 C.3    94  VAL94       0.0020
     46  N         10.3730   -8.7660    6.4750 N.am   95  GLN95      -0.1966
     47  CA         9.7810  -10.0590    6.1530 C.3    95  GLN95       0.1733
     48  C          8.4150  -10.1740    6.8630 C.2    95  GLN95       0.2617
     49  O          8.2380   -9.7080    8.0100 O.2    95  GLN95      -0.2715
     50  CB        10.7070  -11.2280    6.5420 C.3    95  GLN95       0.0408
     51  CG        10.9880  -11.4240    8.0550 C.3    95  GLN95       0.0908
     52  CD         9.8460  -12.1000    8.8180 C.2    95  GLN95       0.2608
     53  OE1        9.0560  -12.8670    8.2320 O.2    95  GLN95      -0.2717
     54  NE2        9.7630  -11.8290   10.1170 N.am   95  GLN95      -0.0878
     55  N          7.4510  -10.7740    6.1870 N.am   96  GLY96      -0.1940
     56  CA         6.1520  -10.9540    6.8000 C.3    96  GLY96       0.2014
     57  C          5.7190  -12.4010    6.7990 C.2    96  GLY96       0.2639
     58  O          4.5410  -12.6970    6.9930 O.2    96  GLY96      -0.2714
     59  N          6.6680  -13.2990    6.5500 N.am   97  THR97      -0.1950
     60  CA         6.3830  -14.7240    6.5120 C.3    97  THR97       0.1897
     61  C          6.2600  -15.2380    7.9440 C.2    97  THR97       0.2313
     62  O          5.4530  -16.1160    8.2480 O.2    97  THR97      -0.2863
     63  CB         7.5020  -15.4960    5.7470 C.3    97  THR97       0.1794
     64  OG1        7.4410  -15.1490    4.3700 O.3    97  THR97      -0.2208
     65  CG2        7.3380  -17.0220    5.8830 C.3    97  THR97       0.0378
     66  N          5.6580  -14.2790   12.0940 N.3    99  PHE99      -0.1241
     67  CA         5.1170  -13.2990   13.0240 C.3    99  PHE99       0.1605
     68  C          6.0340  -13.3300   14.2580 C.2    99  PHE99       0.2264
     69  O          6.5070  -14.4070   14.6490 O.2    99  PHE99      -0.2867
     70  CB         3.6800  -13.6830   13.4070 C.3    99  PHE99       0.0534
     71  CG         2.9170  -12.5830   14.0980 C.ar   99  PHE99      -0.0203
     72  CD1        2.3090  -11.5680   13.3550 C.ar   99  PHE99      -0.0042
     73  CD2        2.8420  -12.5350   15.4870 C.ar   99  PHE99      -0.0042
     74  CE1        1.6440  -10.5150   13.9860 C.ar   99  PHE99      -0.0003
     75  CE2        2.1830  -11.4910   16.1320 C.ar   99  PHE99      -0.0003
     76  CZ         1.5840  -10.4770   15.3730 C.ar   99  PHE99      -0.0000
     77  N          6.4420   -9.4450   12.3710 N.3   101  TYR101     -0.1241
     78  CA         7.1510   -8.9450   11.2110 C.3   101  TYR101      0.1605
     79  C          8.4340   -8.2360   11.6640 C.2   101  TYR101      0.2264
     80  O          8.4170   -7.4480   12.6330 O.2   101  TYR101     -0.2867
     81  CB         6.2310   -8.0180   10.4210 C.3   101  TYR101      0.0534
     82  CG         4.8590   -8.6250   10.1850 C.ar  101  TYR101     -0.0201
     83  CD1        4.7120   -9.9880    9.9310 C.ar  101  TYR101     -0.0009
     84  CD2        3.7080   -7.8250   10.1880 C.ar  101  TYR101     -0.0009
     85  CE1        3.4600  -10.5440    9.6770 C.ar  101  TYR101      0.0417
     86  CE2        2.4420   -8.3660    9.9350 C.ar  101  TYR101      0.0417
     87  CZ         2.3320   -9.7170    9.6770 C.ar  101  TYR101      0.1957
     88  OH         1.0890  -10.2150    9.3770 O.3   101  TYR101     -0.2866
     89  N         12.1490   -6.1450   10.4010 N.3   103  PHE103     -0.1241
     90  CA        12.9020   -5.3210    9.4560 C.3   103  PHE103      0.1605
     91  C         14.4120   -5.5370    9.5310 C.2   103  PHE103      0.2264
     92  O         14.9500   -5.8080   10.5970 O.2   103  PHE103     -0.2867
     93  CB        12.7160   -3.8440    9.8060 C.3   103  PHE103      0.0534
     94  CG        11.3980   -3.2980    9.4460 C.ar  103  PHE103     -0.0203
     95  CD1       10.3350   -3.4040   10.3190 C.ar  103  PHE103     -0.0042
     96  CD2       11.2120   -2.6520    8.2280 C.ar  103  PHE103     -0.0042
     97  CE1        9.1000   -2.8690    9.9810 C.ar  103  PHE103     -0.0003
     98  CE2        9.9910   -2.1230    7.8890 C.ar  103  PHE103     -0.0003
     99  CZ         8.9300   -2.2260    8.7590 C.ar  103  PHE103     -0.0000
@<TRIPOS>BOND
     1    26    27    1
     2    26    29    1
     3    26    25    1
     4    27    28    2
     5    30    29    1
     6    31    32    1
     7    33    34    2
     8    33    32    1
     9    21    19   ar
    10    21    23   ar
    11     4     3    2
    12    13    14    1
    13    32    35    1
    14    19    18   ar
    15    24    23    1
    16    14    15    1
    17    14    17    1
    18    23    22   ar
    19    15    16    2
    20     1     2    1
    21    18    17    1
    22    18    20   ar
    23     3     2    1
    24    22    20   ar
    25    35    36    1
    26     5     2    1
    27     5     6    1
    28    38    36    1
    29    36    37    1
    30     8     6   ar
    31     8    10   ar
    32     6     7   ar
    33    42    41    2
    34    64    63    1
    35    10    11   ar
    36    39    40    1
    37    45    43    1
    38     7     9   ar
    39    41    40    1
    40    41    46   am
    41    63    65    1
    42    63    60    1
    43    40    43    1
    44    43    44    1
    45    11     9   ar
    46    11    12    1
    47    47    46    1
    48    47    50    1
    49    47    48    1
    50    55    56    1
    51    55    48   am
    52    60    59    1
    53    60    61    1
    54    50    51    1
    55    59    57   am
    56    57    56    1
    57    57    58    2
    58    48    49    2
    59    98    96   ar
    60    98    99   ar
    61    61    62    2
    62    51    52    1
    63    96    94   ar
    64    53    52    2
    65    99    97   ar
    66    52    54   am
    67    88    87    1
    68    94    93    1
    69    94    95   ar
    70    90    91    1
    71    90    93    1
    72    90    89    1
    73    91    92    2
    74    87    85   ar
    75    87    86   ar
    76    85    83   ar
    77    83    82   ar
    78    86    84   ar
    79    97    95   ar
    80    82    84   ar
    81    82    81    1
    82    81    78    1
    83    78    79    1
    84    78    77    1
    85    79    80    2
    86    66    67    1
    87    67    70    1
    88    67    68    1
    89    72    74   ar
    90    72    71   ar
    91    70    71    1
    92    74    76   ar
    93    71    73   ar
    94    68    69    2
    95    76    75   ar
    96    73    75   ar
