@<TRIPOS>MOLECULE
tmp/1yefA00.pdb
 92 88 0 0 0
SMALL
GASTEIGER

@<TRIPOS>ATOM
      1  N         19.9220   27.7760   62.1650 N.3    31  TYR31      -0.1241
      2  CA        20.4300   28.4380   60.9840 C.3    31  TYR31       0.1605
      3  C         21.8860   27.9760   60.7580 C.2    31  TYR31       0.2264
      4  O         22.5370   27.4240   61.6670 O.2    31  TYR31      -0.2867
      5  CB        20.3300   29.9500   61.1780 C.3    31  TYR31       0.0534
      6  CG        20.5660   30.7610   59.9370 C.ar   31  TYR31      -0.0201
      7  CD1       19.9010   30.4760   58.7390 C.ar   31  TYR31      -0.0009
      8  CD2       21.4460   31.8300   59.9600 C.ar   31  TYR31      -0.0009
      9  CE1       20.1320   31.2440   57.5980 C.ar   31  TYR31       0.0417
     10  CE2       21.6780   32.5910   58.8390 C.ar   31  TYR31       0.0417
     11  CZ        21.0230   32.3070   57.6690 C.ar   31  TYR31       0.1957
     12  OH        21.2910   33.1050   56.5830 O.3    31  TYR31      -0.2866
     13  N         16.7350   31.3040   65.1420 N.3    37  TYR37      -0.1241
     14  CA        15.8520   32.4630   65.1100 C.3    37  TYR37       0.1605
     15  C         14.3840   32.1760   65.4200 C.2    37  TYR37       0.2264
     16  O         13.5280   32.2550   64.5460 O.2    37  TYR37      -0.2867
     17  CB        15.9850   33.1670   63.7680 C.3    37  TYR37       0.0534
     18  CG        17.3710   33.6830   63.4740 C.ar   37  TYR37      -0.0201
     19  CD1       17.8810   34.7740   64.1490 C.ar   37  TYR37      -0.0009
     20  CD2       18.1730   33.0710   62.5310 C.ar   37  TYR37      -0.0009
     21  CE1       19.1570   35.2410   63.8940 C.ar   37  TYR37       0.0417
     22  CE2       19.4470   33.5250   62.2720 C.ar   37  TYR37       0.0417
     23  CZ        19.9400   34.6100   62.9570 C.ar   37  TYR37       0.1957
     24  OH        21.2270   35.0560   62.7190 O.3    37  TYR37      -0.2866
     25  N         11.2280   33.2370   67.7450 N.3    39  ASN39      -0.1240
     26  CA        10.6780   34.3310   68.5360 C.3    39  ASN39       0.1653
     27  C          9.2950   34.0090   69.0900 C.2    39  ASN39       0.2266
     28  O          8.5900   33.1570   68.5610 O.2    39  ASN39      -0.2867
     29  CB        10.5450   35.5890   67.6960 C.3    39  ASN39       0.1155
     30  CG        11.7770   35.8910   66.9090 C.2    39  ASN39       0.2627
     31  OD1       12.7010   36.5430   67.3970 O.2    39  ASN39      -0.2716
     32  ND2       11.8030   35.4270   65.6720 N.am   39  ASN39      -0.0877
     33  N          5.7550   36.0520   70.5050 N.3    41  LEU41      -0.1245
     34  CA         5.0380   37.3190   70.5580 C.3    41  LEU41       0.1561
     35  C          3.7670   37.1460   71.3870 C.2    41  LEU41       0.2260
     36  O          3.2250   36.0410   71.5090 O.2    41  LEU41      -0.2867
     37  CB         4.5970   37.7790   69.1510 C.3    41  LEU41       0.0270
     38  CG         5.5020   37.7480   67.9210 C.3    41  LEU41       0.0019
     39  CD1        4.7620   38.3870   66.7590 C.3    41  LEU41       0.0001
     40  CD2        6.7650   38.4860   68.1690 C.3    41  LEU41       0.0001
     41  N          7.1320   32.4650   66.1000 N.3    94  VAL94      -0.1245
     42  CA         7.3840   32.8130   64.7030 C.3    94  VAL94       0.1561
     43  C          8.8710   32.5650   64.4580 C.2    94  VAL94       0.2260
     44  O          9.7100   32.9500   65.2740 O.2    94  VAL94      -0.2867
     45  CB         6.9720   34.2880   64.3980 C.3    94  VAL94       0.0252
     46  CG1        7.6760   35.2570   65.3260 C.3    94  VAL94       0.0019
     47  CG2        7.2490   34.6460   62.9570 C.3    94  VAL94       0.0019
     48  N         12.4040   32.7720   62.1390 N.3    96  GLY96      -0.1210
     49  CA        13.0560   33.6350   61.1760 C.3    96  GLY96       0.1956
     50  C         14.2710   33.0000   60.5170 C.2    96  GLY96       0.2612
     51  O         15.0630   33.7000   59.8900 O.2    96  GLY96      -0.2717
     52  N         14.4020   31.6800   60.6290 N.am   97  THR97      -0.1952
     53  CA        15.5390   30.9230   60.0770 C.3    97  THR97       0.1897
     54  C         15.4240   30.6100   58.5860 C.2    97  THR97       0.2313
     55  O         16.4210   30.5480   57.8500 O.2    97  THR97      -0.2863
     56  CB        15.6690   29.5490   60.8190 C.3    97  THR97       0.1794
     57  OG1       15.9780   29.7750   62.1950 O.3    97  THR97      -0.2208
     58  CG2       16.7490   28.6500   60.1970 C.3    97  THR97       0.0378
     59  N         13.3630   31.4320   55.0330 N.3    99  PHE99      -0.1241
     60  CA        12.5300   32.3760   54.3150 C.3    99  PHE99       0.1605
     61  C         11.5110   31.5430   53.5330 C.2    99  PHE99       0.2264
     62  O         11.8860   30.5170   52.9390 O.2    99  PHE99      -0.2867
     63  CB        13.4160   33.1960   53.3640 C.3    99  PHE99       0.0534
     64  CG        12.7450   34.4110   52.7920 C.ar   99  PHE99      -0.0203
     65  CD1       11.9060   34.3050   51.6750 C.ar   99  PHE99      -0.0042
     66  CD2       12.9780   35.6680   53.3370 C.ar   99  PHE99      -0.0042
     67  CE1       11.3040   35.4360   51.1040 C.ar   99  PHE99      -0.0003
     68  CE2       12.3830   36.8210   52.7760 C.ar   99  PHE99      -0.0003
     69  CZ        11.5440   36.7010   51.6520 C.ar   99  PHE99      -0.0000
     70  N          9.2940   33.8670   56.4860 N.3   101  TYR101     -0.1241
     71  CA         8.9890   33.7580   57.9210 C.3   101  TYR101      0.1605
     72  C          7.5530   33.3040   58.1460 C.2   101  TYR101      0.2264
     73  O          6.6320   33.7870   57.4920 O.2   101  TYR101     -0.2867
     74  CB         9.2920   35.0910   58.6260 C.3   101  TYR101      0.0534
     75  CG        10.6810   35.5890   58.2780 C.ar  101  TYR101     -0.0201
     76  CD1       11.7390   34.6760   58.1180 C.ar  101  TYR101     -0.0009
     77  CD2       10.9240   36.9400   58.0090 C.ar  101  TYR101     -0.0009
     78  CE1       12.9800   35.0770   57.6750 C.ar  101  TYR101      0.0417
     79  CE2       12.1750   37.3590   57.5570 C.ar  101  TYR101      0.0417
     80  CZ        13.1990   36.4120   57.3920 C.ar  101  TYR101      0.1957
     81  OH        14.4200   36.7830   56.8670 O.3   101  TYR101     -0.2866
     82  N          4.4990   31.9490   61.1590 N.3   103  PHE103     -0.1241
     83  CA         3.9860   32.0000   62.5230 C.3   103  PHE103      0.1605
     84  C          3.2400   30.7290   62.8690 C.2   103  PHE103      0.2264
     85  O          2.7870   30.0060   61.9820 O.2   103  PHE103     -0.2867
     86  CB         2.9510   33.1400   62.6540 C.3   103  PHE103      0.0534
     87  CG         3.5050   34.5260   62.4360 C.ar  103  PHE103     -0.0203
     88  CD1        3.7890   34.9870   61.1610 C.ar  103  PHE103     -0.0042
     89  CD2        3.6520   35.4070   63.5070 C.ar  103  PHE103     -0.0042
     90  CE1        4.2080   36.2950   60.9510 C.ar  103  PHE103     -0.0003
     91  CE2        4.0690   36.7190   63.3010 C.ar  103  PHE103     -0.0003
     92  CZ         4.3460   37.1650   62.0170 C.ar  103  PHE103     -0.0000
@<TRIPOS>BOND
     1    67    69   ar
     2    67    65   ar
     3    69    68   ar
     4    65    64   ar
     5    68    66   ar
     6    64    66   ar
     7    64    63    1
     8    62    61    2
     9    63    60    1
    10    61    60    1
    11    60    59    1
    12    70    71    1
    13    12    11    1
    14    81    80    1
    15    80    79   ar
    16    80    78   ar
    17    73    72    2
    18    79    77   ar
    19     9    11   ar
    20     9     7   ar
    21    11    10   ar
    22    78    76   ar
    23    55    54    2
    24    71    72    1
    25    71    74    1
    26    77    75   ar
    27    76    75   ar
    28    75    74    1
    29    54    53    1
    30     7     6   ar
    31    10     8   ar
    32    51    50    2
    33     6     8   ar
    34     6     5    1
    35    53    52    1
    36    53    56    1
    37    58    56    1
    38    50    52   am
    39    50    49    1
    40     3     2    1
    41     3     4    2
    42    56    57    1
    43    90    88   ar
    44    90    92   ar
    45     2     5    1
    46     2     1    1
    47    82    83    1
    48    88    87   ar
    49    49    48    1
    50    85    84    2
    51    92    91   ar
    52    22    20   ar
    53    22    23   ar
    54    87    86    1
    55    87    89   ar
    56    83    86    1
    57    83    84    1
    58    20    18   ar
    59    24    23    1
    60    23    21   ar
    61    47    45    1
    62    91    89   ar
    63    18    17    1
    64    18    19   ar
    65    17    14    1
    66    21    19   ar
    67    45    42    1
    68    45    46    1
    69    43    42    1
    70    43    44    2
    71    16    15    2
    72    42    41    1
    73    14    13    1
    74    14    15    1
    75    32    30   am
    76    39    38    1
    77    30    31    2
    78    30    29    1
    79    29    26    1
    80    25    26    1
    81    38    40    1
    82    38    37    1
    83    26    27    1
    84    28    27    2
    85    37    34    1
    86    33    34    1
    87    34    35    1
    88    35    36    2
