@<TRIPOS>MOLECULE
tmp/1yejA00.pdb
 102 100 0 0 0
SMALL
GASTEIGER

@<TRIPOS>ATOM
      1  N         20.2050   27.6970   62.2590 N.3    31  TYR31      -0.1241
      2  CA        20.7600   28.2990   61.0450 C.3    31  TYR31       0.1605
      3  C         22.2070   27.8340   60.8040 C.2    31  TYR31       0.2264
      4  O         22.8610   27.3120   61.7050 O.2    31  TYR31      -0.2867
      5  CB        20.6890   29.8290   61.1420 C.3    31  TYR31       0.0534
      6  CG        20.9200   30.5610   59.8280 C.ar   31  TYR31      -0.0201
      7  CD1       20.1960   30.2240   58.6700 C.ar   31  TYR31      -0.0009
      8  CD2       21.8420   31.6050   59.7460 C.ar   31  TYR31      -0.0009
      9  CE1       20.3910   30.9170   57.4710 C.ar   31  TYR31       0.0417
     10  CE2       22.0400   32.2980   58.5650 C.ar   31  TYR31       0.0417
     11  CZ        21.3180   31.9560   57.4360 C.ar   31  TYR31       0.1957
     12  OH        21.5090   32.6760   56.2870 O.3    31  TYR31      -0.2866
     13  N         16.8690   31.3640   65.1290 N.3    37  TYR37      -0.1241
     14  CA        15.9950   32.5240   65.1080 C.3    37  TYR37       0.1605
     15  C         14.5330   32.2160   65.4070 C.2    37  TYR37       0.2264
     16  O         13.7000   32.1560   64.5010 O.2    37  TYR37      -0.2867
     17  CB        16.1300   33.2520   63.7770 C.3    37  TYR37       0.0534
     18  CG        17.5440   33.6860   63.4570 C.ar   37  TYR37      -0.0201
     19  CD1       18.0640   34.8690   63.9740 C.ar   37  TYR37      -0.0009
     20  CD2       18.3640   32.9020   62.6460 C.ar   37  TYR37      -0.0009
     21  CE1       19.3620   35.2620   63.7020 C.ar   37  TYR37       0.0417
     22  CE2       19.6610   33.2840   62.3670 C.ar   37  TYR37       0.0417
     23  CZ        20.1540   34.4630   62.8950 C.ar   37  TYR37       0.1957
     24  OH        21.4440   34.8570   62.6360 O.3    37  TYR37      -0.2866
     25  N         11.3530   33.4090   67.7480 N.3    39  ASN39      -0.1240
     26  CA        10.8240   34.4990   68.5530 C.3    39  ASN39       0.1653
     27  C          9.4420   34.1610   69.1140 C.2    39  ASN39       0.2266
     28  O          8.7490   33.2690   68.6020 O.2    39  ASN39      -0.2867
     29  CB        10.7010   35.7730   67.6980 C.3    39  ASN39       0.1155
     30  CG        11.9610   36.1050   66.9340 C.2    39  ASN39       0.2627
     31  OD1       12.9360   36.5870   67.4980 O.2    39  ASN39      -0.2716
     32  ND2       11.9380   35.8720   65.6320 N.am   39  ASN39      -0.0877
     33  N          5.9080   36.1870   70.5470 N.3    41  LEU41      -0.1245
     34  CA         5.1920   37.4510   70.5900 C.3    41  LEU41       0.1561
     35  C          3.9310   37.3000   71.4190 C.2    41  LEU41       0.2260
     36  O          3.3630   36.2150   71.5120 O.2    41  LEU41      -0.2867
     37  CB         4.7450   37.8660   69.1740 C.3    41  LEU41       0.0270
     38  CG         5.6880   37.7950   67.9720 C.3    41  LEU41       0.0019
     39  CD1        4.9340   38.2460   66.7350 C.3    41  LEU41       0.0001
     40  CD2        6.9130   38.6560   68.1830 C.3    41  LEU41       0.0001
     41  N          7.3080   32.6040   66.1940 N.3    94  VAL94      -0.1245
     42  CA         7.5180   32.9270   64.7820 C.3    94  VAL94       0.1561
     43  C          8.9960   32.6760   64.4890 C.2    94  VAL94       0.2260
     44  O          9.8650   33.0950   65.2630 O.2    94  VAL94      -0.2867
     45  CB         7.0730   34.4030   64.4420 C.3    94  VAL94       0.0252
     46  CG1        7.6940   35.4090   65.3910 C.3    94  VAL94       0.0019
     47  CG2        7.3920   34.7600   62.9810 C.3    94  VAL94       0.0019
     48  N         12.4150   32.8690   62.0530 N.3    96  GLY96      -0.1210
     49  CA        13.0420   33.6970   61.0460 C.3    96  GLY96       0.1956
     50  C         14.2770   33.0110   60.4620 C.2    96  GLY96       0.2613
     51  O         15.0500   33.6560   59.7620 O.2    96  GLY96      -0.2717
     52  N         14.4820   31.7240   60.7550 N.am   97  THR97      -0.1938
     53  CA        15.6460   30.9870   60.2410 C.3    97  THR97       0.2028
     54  C         15.5330   30.6730   58.7540 C.2    97  THR97       0.2642
     55  O         16.5260   30.6710   58.0220 O.2    97  THR97      -0.2714
     56  CB        15.8670   29.6440   61.0050 C.3    97  THR97       0.1808
     57  OG1       16.2170   29.9140   62.3670 O.3    97  THR97      -0.2208
     58  CG2       16.9900   28.8340   60.3690 C.3    97  THR97       0.0379
     59  N         14.3170   30.3820   58.3330 N.am   98  HIS98      -0.1959
     60  CA        14.0600   30.0320   56.9530 C.3    98  HIS98       0.1787
     61  C         13.1560   31.0700   56.3320 C.2    98  HIS98       0.2620
     62  O         12.2660   31.5860   56.9800 O.2    98  HIS98      -0.2715
     63  CB        13.3780   28.6840   56.9060 C.3    98  HIS98       0.0785
     64  CG        14.1460   27.6240   57.6300 C.ar   98  HIS98       0.0821
     65  ND1       15.3430   27.1240   57.1620 N.ar   98  HIS98      -0.2267
     66  CD2       13.8790   26.9480   58.7710 C.ar   98  HIS98       0.1154
     67  CE1       15.7620   26.1640   57.9710 C.ar   98  HIS98       0.1986
     68  NE2       14.8910   26.0390   58.9530 N.ar   98  HIS98      -0.2212
     69  N         13.4100   31.3690   55.0640 N.am   99  PHE99      -0.1974
     70  CA        12.6140   32.3540   54.3570 C.3    99  PHE99       0.1639
     71  C         11.4960   31.6190   53.5820 C.2    99  PHE99       0.2290
     72  O         11.7480   30.5680   52.9830 O.2    99  PHE99      -0.2864
     73  CB        13.5330   33.1500   53.4220 C.3    99  PHE99       0.0560
     74  CG        12.9420   34.4300   52.9440 C.ar   99  PHE99      -0.0200
     75  CD1       13.1220   35.6050   53.6680 C.ar   99  PHE99      -0.0042
     76  CD2       12.1840   34.4660   51.7640 C.ar   99  PHE99      -0.0042
     77  CE1       12.5590   36.8020   53.2210 C.ar   99  PHE99      -0.0003
     78  CE2       11.6110   35.6620   51.3050 C.ar   99  PHE99      -0.0003
     79  CZ        11.7980   36.8310   52.0310 C.ar   99  PHE99      -0.0000
     80  N          9.5580   34.0010   56.6820 N.3   101  TYR101     -0.1241
     81  CA         9.2800   33.8780   58.1150 C.3   101  TYR101      0.1605
     82  C          7.8360   33.4100   58.2610 C.2   101  TYR101      0.2264
     83  O          6.9540   33.8610   57.5190 O.2   101  TYR101     -0.2867
     84  CB         9.4790   35.2350   58.8010 C.3   101  TYR101      0.0534
     85  CG        10.7510   35.9370   58.3680 C.ar  101  TYR101     -0.0201
     86  CD1       11.9320   35.2140   58.1230 C.ar  101  TYR101     -0.0009
     87  CD2       10.7770   37.3230   58.1900 C.ar  101  TYR101     -0.0009
     88  CE1       13.0990   35.8520   57.7160 C.ar  101  TYR101      0.0417
     89  CE2       11.9430   37.9690   57.7810 C.ar  101  TYR101      0.0417
     90  CZ        13.0940   37.2210   57.5500 C.ar  101  TYR101      0.1957
     91  OH        14.2410   37.8600   57.1550 O.3   101  TYR101     -0.2866
     92  N          4.6950   32.0750   61.1960 N.3   103  PHE103     -0.1241
     93  CA         4.1470   32.1170   62.5430 C.3   103  PHE103      0.1605
     94  C          3.3870   30.8570   62.9040 C.2   103  PHE103      0.2264
     95  O          2.8580   30.1650   62.0330 O.2   103  PHE103     -0.2867
     96  CB         3.1040   33.2440   62.6270 C.3   103  PHE103      0.0534
     97  CG         3.6510   34.6380   62.4350 C.ar  103  PHE103     -0.0203
     98  CD1        3.9740   35.1130   61.1670 C.ar  103  PHE103     -0.0042
     99  CD2        3.7760   35.5040   63.5290 C.ar  103  PHE103     -0.0042
    100  CE1        4.4090   36.4250   60.9760 C.ar  103  PHE103     -0.0003
    101  CE2        4.2050   36.8170   63.3480 C.ar  103  PHE103     -0.0003
    102  CZ         4.5220   37.2790   62.0620 C.ar  103  PHE103     -0.0000
@<TRIPOS>BOND
     1    78    76   ar
     2    78    79   ar
     3    76    74   ar
     4    79    77   ar
     5    74    73    1
     6    74    75   ar
     7    72    71    2
     8    77    75   ar
     9    73    70    1
    10    71    70    1
    11    70    69    1
    12    69    61   am
    13    12    11    1
    14    61    60    1
    15    61    62    2
    16    80    81    1
    17    63    60    1
    18    63    64    1
    19    60    59    1
    20    91    90    1
    21    65    64   ar
    22    65    67   ar
    23    11     9   ar
    24    11    10   ar
    25     9     7   ar
    26    83    82    2
    27    90    88   ar
    28    90    89   ar
    29    64    66   ar
    30    88    86   ar
    31    89    87   ar
    32    67    68   ar
    33    55    54    2
    34    81    82    1
    35    81    84    1
    36    86    85   ar
    37    87    85   ar
    38    59    54   am
    39    85    84    1
    40    10     8   ar
    41     7     6   ar
    42    54    53    1
    43    66    68   ar
    44     8     6   ar
    45    51    50    2
    46     6     5    1
    47    53    52    1
    48    53    56    1
    49    58    56    1
    50    50    52   am
    51    50    49    1
    52     3     2    1
    53     3     4    2
    54   100    98   ar
    55   100   102   ar
    56    56    57    1
    57     2     5    1
    58     2     1    1
    59    49    48    1
    60    98    97   ar
    61    92    93    1
    62    95    94    2
    63   102   101   ar
    64    22    20   ar
    65    22    23   ar
    66    97    96    1
    67    97    99   ar
    68    93    96    1
    69    93    94    1
    70    24    23    1
    71    20    18   ar
    72    23    21   ar
    73    47    45    1
    74   101    99   ar
    75    18    17    1
    76    18    19   ar
    77    21    19   ar
    78    17    14    1
    79    45    42    1
    80    45    46    1
    81    43    42    1
    82    43    44    2
    83    16    15    2
    84    42    41    1
    85    14    13    1
    86    14    15    1
    87    32    30   am
    88    39    38    1
    89    30    31    2
    90    30    29    1
    91    29    26    1
    92    25    26    1
    93    38    40    1
    94    38    37    1
    95    26    27    1
    96    28    27    2
    97    37    34    1
    98    33    34    1
    99    34    35    1
   100    35    36    2
