@<TRIPOS>MOLECULE
tmp/1yejB00.pdb
 107 107 0 0 0
SMALL
GASTEIGER

@<TRIPOS>ATOM
      1  N          9.1420   46.1600   58.4090 N.3    35  HIS35      -0.1241
      2  CA         8.4550   44.9540   57.9270 C.3    35  HIS35       0.1621
      3  C          6.9430   45.1760   57.9240 C.2    35  HIS35       0.2264
      4  O          6.4190   46.0060   58.6790 O.2    35  HIS35      -0.2867
      5  CB         8.7680   43.7330   58.8220 C.3    35  HIS35       0.0745
      6  CG        10.2350   43.4320   58.9900 C.ar   35  HIS35       0.0817
      7  ND1       10.7600   42.1690   58.8090 N.ar   35  HIS35      -0.2268
      8  CD2       11.2720   44.2170   59.3750 C.ar   35  HIS35       0.1154
      9  CE1       12.0540   42.1870   59.0840 C.ar   35  HIS35       0.1986
     10  NE2       12.3880   43.4160   59.4270 N.ar   35  HIS35      -0.2212
     11  N          3.2560   43.0550   58.1740 N.3    37  VAL37      -0.1245
     12  CA         2.6390   41.8050   58.6220 C.3    37  VAL37       0.1561
     13  C          1.1300   41.8550   58.4150 C.2    37  VAL37       0.2260
     14  O          0.5010   42.8880   58.6100 O.2    37  VAL37      -0.2867
     15  CB         2.9720   41.5410   60.1360 C.3    37  VAL37       0.0252
     16  CG1        2.1850   40.3590   60.6820 C.3    37  VAL37       0.0019
     17  CG2        4.4780   41.3000   60.3040 C.3    37  VAL37       0.0019
     18  N          3.8440   36.9990   57.3680 N.3    47  TRP47      -0.1241
     19  CA         4.8880   37.9700   57.0850 C.3    47  TRP47       0.1605
     20  C          4.8400   38.3060   55.5770 C.2    47  TRP47       0.2264
     21  O          4.8940   37.4180   54.7310 O.2    47  TRP47      -0.2867
     22  CB         6.2570   37.4010   57.5240 C.3    47  TRP47       0.0550
     23  CG         7.4030   38.3440   57.3040 C.ar   47  TRP47       0.0003
     24  CD1        7.7680   39.4040   58.0970 C.ar   47  TRP47       0.0946
     25  CD2        8.2550   38.3920   56.1550 C.ar   47  TRP47       0.0152
     26  NE1        8.7800   40.1220   57.4920 N.ar   47  TRP47      -0.2442
     27  CE2        9.0980   39.5220   56.3020 C.ar   47  TRP47       0.0810
     28  CE3        8.3850   37.5920   55.0100 C.ar   47  TRP47       0.0012
     29  CZ2       10.0410   39.8740   55.3470 C.ar   47  TRP47       0.0191
     30  CZ3        9.3250   37.9430   54.0660 C.ar   47  TRP47       0.0001
     31  CH2       10.1400   39.0740   54.2390 C.ar   47  TRP47       0.0015
     32  N          9.8470   43.2060   53.7340 N.3    50  ARG50      -0.1245
     33  CA        10.6120   44.1940   54.4810 C.3    50  ARG50       0.1563
     34  C         11.3440   45.1040   53.5290 C.2    50  ARG50       0.2260
     35  O         11.6750   44.7120   52.4120 O.2    50  ARG50      -0.2867
     36  CB        11.6160   43.5380   55.4330 C.3    50  ARG50       0.0307
     37  CG        12.5780   42.6030   54.7790 C.3    50  ARG50       0.0489
     38  CD        13.3890   41.8960   55.8290 C.3    50  ARG50       0.2205
     39  NE        14.8110   41.9920   55.5370 N.pl3  50  ARG50      -0.0865
     40  CZ        15.5730   40.9720   55.1700 C.cat  50  ARG50       0.5346
     41  NH1       15.0500   39.7590   55.0510 N.pl3  50  ARG50       0.1354
     42  NH2       16.8450   41.1800   54.8610 N.pl3  50  ARG50       0.1354
     43  N          6.0440   47.4890   61.1420 N.3    97  THR97      -0.1218
     44  CA         6.7960   47.3980   62.3770 C.3    97  THR97       0.1862
     45  C          8.2740   47.6540   62.1830 C.2    97  THR97       0.2287
     46  O          8.8440   47.2650   61.1610 O.2    97  THR97      -0.2866
     47  CB         6.6330   45.9900   63.0420 C.3    97  THR97       0.1770
     48  OG1        7.5500   45.8580   64.1420 O.3    97  THR97      -0.2211
     49  CG2        6.9080   44.8620   62.0480 C.3    97  THR97       0.0375
     50  N         10.8060   46.2360   63.3110 N.3    99  TRP99      -0.1241
     51  CA        11.1100   44.9670   63.9570 C.3    99  TRP99       0.1605
     52  C         12.3110   44.9550   64.9120 C.2    99  TRP99       0.2264
     53  O         12.2620   44.3190   65.9690 O.2    99  TRP99      -0.2867
     54  CB        11.2140   43.8760   62.8750 C.3    99  TRP99       0.0550
     55  CG        11.6030   42.5280   63.3670 C.ar   99  TRP99       0.0003
     56  CD1       12.7650   41.8680   63.1010 C.ar   99  TRP99       0.0946
     57  CD2       10.8190   41.6570   64.1890 C.ar   99  TRP99       0.0152
     58  NE1       12.7520   40.6360   63.7000 N.ar   99  TRP99      -0.2442
     59  CE2       11.5710   40.4750   64.3760 C.ar   99  TRP99       0.0810
     60  CE3        9.5480   41.7580   64.7730 C.ar   99  TRP99       0.0012
     61  CZ2       11.0990   39.3950   65.1200 C.ar   99  TRP99       0.0191
     62  CZ3        9.0710   40.6720   65.5170 C.ar   99  TRP99       0.0001
     63  CH2        9.8530   39.5050   65.6800 C.ar   99  TRP99       0.0015
     64  N         15.6320   43.7260   64.3000 N.3   101  PHE101     -0.1241
     65  CA        16.7690   42.8470   64.0990 C.3   101  PHE101      0.1605
     66  C         17.8580   43.6390   63.3920 C.2   101  PHE101      0.2264
     67  O         17.6000   44.2900   62.3670 O.2   101  PHE101     -0.2867
     68  CB        16.4230   41.6140   63.2720 C.3   101  PHE101      0.0534
     69  CG        17.5990   40.7120   63.0330 C.ar  101  PHE101     -0.0203
     70  CD1       18.3020   40.1700   64.1090 C.ar  101  PHE101     -0.0042
     71  CD2       18.0030   40.3930   61.7370 C.ar  101  PHE101     -0.0042
     72  CE1       19.3830   39.3180   63.9110 C.ar  101  PHE101     -0.0003
     73  CE2       19.0870   39.5390   61.5170 C.ar  101  PHE101     -0.0003
     74  CZ        19.7750   39.0000   62.6160 C.ar  101  PHE101     -0.0000
     75  N         21.1430   42.9250   61.6290 N.3   103  PRO103     -0.2116
     76  CA        21.9890   41.8960   61.0160 C.3   103  PRO103      0.1372
     77  C         23.4790   41.9280   61.3740 C.2   103  PRO103      0.2244
     78  O         24.0410   40.8910   61.7280 O.2   103  PRO103     -0.2868
     79  CB        21.7230   42.0900   59.5320 C.3   103  PRO103      0.0268
     80  CG        20.2990   42.5680   59.5210 C.3   103  PRO103      0.0207
     81  CD        20.3170   43.5940   60.6130 C.3   103  PRO103      0.0892
     82  N         18.9690   42.0760   68.4390 N.3   108  TYR108     -0.1241
     83  CA        17.7910   42.8920   68.2300 C.3   108  TYR108      0.1605
     84  C         17.6380   44.0770   69.1480 C.2   108  TYR108      0.2264
     85  O         18.0380   44.0010   70.3120 O.2   108  TYR108     -0.2867
     86  CB        16.5490   42.0220   68.4650 C.3   108  TYR108      0.0534
     87  CG        16.4510   40.7630   67.6330 C.ar  108  TYR108     -0.0201
     88  CD1       17.3860   39.7220   67.7690 C.ar  108  TYR108     -0.0009
     89  CD2       15.4070   40.5950   66.7310 C.ar  108  TYR108     -0.0009
     90  CE1       17.2790   38.5540   67.0320 C.ar  108  TYR108      0.0417
     91  CE2       15.2850   39.4250   65.9810 C.ar  108  TYR108      0.0417
     92  CZ        16.2190   38.4120   66.1340 C.ar  108  TYR108      0.1957
     93  OH        16.0830   37.2670   65.3790 O.3   108  TYR108     -0.2866
     94  N          5.5200   48.8630   66.8740 N.3   113  TRP113     -0.1241
     95  CA         4.5160   48.5370   65.8780 C.3   113  TRP113      0.1605
     96  C          3.5140   49.6530   65.6500 C.2   113  TRP113      0.2264
     97  O          3.2310   50.4360   66.5580 O.2   113  TRP113     -0.2867
     98  CB         3.7270   47.2850   66.3120 C.3   113  TRP113      0.0550
     99  CG         4.5240   46.0310   66.4320 C.ar  113  TRP113      0.0003
    100  CD1        5.5120   45.7770   67.3300 C.ar  113  TRP113      0.0946
    101  CD2        4.4070   44.8460   65.6230 C.ar  113  TRP113      0.0152
    102  NE1        6.0200   44.5180   67.1370 N.ar  113  TRP113     -0.2442
    103  CE2        5.3620   43.9210   66.0990 C.ar  113  TRP113      0.0810
    104  CE3        3.5830   44.4750   64.5400 C.ar  113  TRP113      0.0012
    105  CZ2        5.5270   42.6470   65.5380 C.ar  113  TRP113      0.0191
    106  CZ3        3.7460   43.2070   63.9770 C.ar  113  TRP113      0.0001
    107  CH2        4.7110   42.3070   64.4810 C.ar  113  TRP113      0.0015
@<TRIPOS>BOND
     1    35    34    2
     2    34    33    1
     3    32    33    1
     4    30    31   ar
     5    30    28   ar
     6    31    29   ar
     7    33    36    1
     8    21    20    2
     9    37    36    1
    10    37    38    1
    11    42    40    1
    12    28    25   ar
    13    41    40    1
    14    40    39    2
    15    29    27   ar
    16    39    38    1
    17    20    19    1
    18    25    27   ar
    19    25    23   ar
    20    27    26   ar
    21    19    18    1
    22    19    22    1
    23    23    22    1
    24    23    24   ar
    25    26    24   ar
    26     3     2    1
    27     3     4    2
    28     2     1    1
    29     2     5    1
    30    11    12    1
    31    13    14    2
    32    13    12    1
    33    12    15    1
    34     7     6   ar
    35     7     9   ar
    36     5     6    1
    37     6     8   ar
    38     9    10   ar
    39     8    10   ar
    40    80    79    1
    41    80    81    1
    42    79    76    1
    43    15    17    1
    44    15    16    1
    45    81    75    1
    46    76    77    1
    47    76    75    1
    48    43    44    1
    49    46    45    2
    50    77    78    2
    51    73    71   ar
    52    73    74   ar
    53    71    69   ar
    54    49    47    1
    55    45    44    1
    56    67    66    2
    57    44    47    1
    58    74    72   ar
    59    54    55    1
    60    54    51    1
    61    69    68    1
    62    69    70   ar
    63    47    48    1
    64    56    55   ar
    65    56    58   ar
    66    68    65    1
    67    50    51    1
    68    55    57   ar
    69    66    65    1
    70    58    59   ar
    71    72    70   ar
    72    51    52    1
    73   106   107   ar
    74   106   104   ar
    75    65    64    1
    76    57    59   ar
    77    57    60   ar
    78    59    61   ar
    79   107   105   ar
    80   104   101   ar
    81    60    62   ar
    82    52    53    2
    83    61    63   ar
    84    93    92    1
    85    62    63   ar
    86   105   103   ar
    87   101   103   ar
    88   101    99   ar
    89    96    95    1
    90    96    97    2
    91    95    98    1
    92    95    94    1
    93    91    92   ar
    94    91    89   ar
    95   103   102   ar
    96    92    90   ar
    97    98    99    1
    98    99   100   ar
    99    89    87   ar
   100    90    88   ar
   101   102   100   ar
   102    87    88   ar
   103    87    86    1
   104    83    82    1
   105    83    86    1
   106    83    84    1
   107    84    85    2
