@<TRIPOS>MOLECULE
tmp/1yetA00.pdb
 164 153 0 0 0
SMALL
GASTEIGER

@<TRIPOS>ATOM
      1  N         31.6010  -45.9870   67.6880 N.3    38  LEU38      -0.1245
      2  CA        31.9440  -45.4980   66.3500 C.3    38  LEU38       0.1561
      3  C         32.1160  -43.9700   66.3280 C.2    38  LEU38       0.2260
      4  O         33.0720  -43.4650   65.7370 O.2    38  LEU38      -0.2867
      5  CB        30.9130  -45.9820   65.3230 C.3    38  LEU38       0.0270
      6  CG        30.7370  -47.5110   65.2630 C.3    38  LEU38       0.0019
      7  CD1       29.7500  -47.8610   64.1660 C.3    38  LEU38       0.0001
      8  CD2       32.0570  -48.2140   65.0100 C.3    38  LEU38       0.0001
      9  N         35.3190  -43.0320   67.9090 N.3    41  ASN41      -0.1225
     10  CA        36.3960  -43.3130   66.9480 C.3    41  ASN41       0.1785
     11  C         36.5350  -42.1600   65.9570 C.2    41  ASN41       0.2597
     12  O         37.6510  -41.6990   65.6670 O.2    41  ASN41      -0.2718
     13  CB        36.1320  -44.6250   66.1960 C.3    41  ASN41       0.1169
     14  CG        36.3200  -45.8550   67.0770 C.2    41  ASN41       0.2627
     15  OD1       36.6910  -45.7460   68.2490 O.2    41  ASN41      -0.2716
     16  ND2       36.0720  -47.0300   66.5170 N.am   41  ASN41      -0.0877
     17  N         35.3990  -41.6950   65.4340 N.am   42  SER42      -0.1952
     18  CA        35.3950  -40.5680   64.5040 C.3    42  SER42       0.1924
     19  C         35.9380  -39.3020   65.1840 C.2    42  SER42       0.2314
     20  O         36.7270  -38.5560   64.5900 O.2    42  SER42      -0.2863
     21  CB        33.9870  -40.3240   63.9520 C.3    42  SER42       0.2116
     22  OG        33.5160  -41.4170   63.1730 O.3    42  SER42      -0.2180
     23  N         38.0680  -39.1680   67.5980 N.3    44  ASP44      -0.1225
     24  CA        39.5060  -39.3910   67.7310 C.3    44  ASP44       0.1805
     25  C         40.2170  -39.0410   66.4170 C.2    44  ASP44       0.2597
     26  O         41.3040  -38.4240   66.4090 O.2    44  ASP44      -0.2718
     27  CB        39.7470  -40.8610   68.0730 C.3    44  ASP44       0.1424
     28  CG        41.2150  -41.2020   68.1870 C.2    44  ASP44       0.3668
     29  OD1       41.8000  -40.8980   69.2380 O.co2  44  ASP44      -0.2456
     30  OD2       41.7850  -41.7800   67.2380 O.co2  44  ASP44      -0.2456
     31  N         39.6180  -39.4750   65.3110 N.am   45  ALA45      -0.1979
     32  CA        40.1570  -39.2230   63.9730 C.3    45  ALA45       0.1597
     33  C         40.1490  -37.7300   63.6100 C.2    45  ALA45       0.2287
     34  O         41.0440  -37.2480   62.9120 O.2    45  ALA45      -0.2864
     35  CB        39.3630  -40.0180   62.9240 C.3    45  ALA45       0.0319
     36  N         42.9460  -35.8360   65.4350 N.3    48  LYS48      -0.1245
     37  CA        44.2200  -36.0500   64.7540 C.3    48  LYS48       0.1561
     38  C         44.4400  -35.1500   63.5300 C.2    48  LYS48       0.2260
     39  O         45.5010  -34.5430   63.3920 O.2    48  LYS48      -0.2867
     40  CB        44.4300  -37.5420   64.4470 C.3    48  LYS48       0.0271
     41  CG        44.8990  -38.3330   65.6840 C.3    48  LYS48       0.0035
     42  CD        44.5870  -39.8370   65.5910 C.3    48  LYS48       0.0206
     43  CE        45.1000  -40.6020   66.8190 C.3    48  LYS48       0.1093
     44  NZ        44.6890  -42.0420   66.8350 N.3    48  LYS48      -0.1314
     45  N         33.0050  -39.6340   58.7720 N.3    83  ASP83      -0.1239
     46  CA        33.7540  -38.5310   59.3740 C.3    83  ASP83       0.1674
     47  C         34.7530  -37.9870   58.3600 C.2    83  ASP83       0.2266
     48  O         35.0660  -38.6570   57.3740 O.2    83  ASP83      -0.2867
     49  CB        34.4650  -38.9150   60.6940 C.3    83  ASP83       0.1410
     50  CG        35.5810  -39.9360   60.5050 C.2    83  ASP83       0.3668
     51  OD1       36.6250  -39.6100   59.8990 O.co2  83  ASP83      -0.2456
     52  OD2       35.4260  -41.0680   61.0100 O.co2  83  ASP83      -0.2456
     53  N         41.1990  -37.9020   60.0340 N.3    86  ILE86      -0.1231
     54  CA        42.5020  -38.2130   59.4670 C.3    86  ILE86       0.1692
     55  C         42.5010  -39.3580   58.4520 C.2    86  ILE86       0.2593
     56  O         43.3040  -39.3560   57.5170 O.2    86  ILE86      -0.2718
     57  CB        43.5420  -38.4760   60.6180 C.3    86  ILE86       0.0266
     58  CG1       44.9590  -38.6460   60.0530 C.3    86  ILE86       0.0019
     59  CG2       43.1460  -39.6960   61.4240 C.3    86  ILE86       0.0020
     60  CD1       45.4990  -37.4060   59.3800 C.3    86  ILE86       0.0001
     61  N         41.6150  -40.3350   58.6270 N.am   87  GLY87      -0.1942
     62  CA        41.5740  -41.4560   57.6980 C.3    87  GLY87       0.2014
     63  C         42.6750  -42.4610   57.9890 C.2    87  GLY87       0.2638
     64  O         43.4660  -42.2720   58.9170 O.2    87  GLY87      -0.2714
     65  N         42.7290  -43.5330   57.2060 N.am   88  MET88      -0.1976
     66  CA        43.7430  -44.5750   57.3940 C.3    88  MET88       0.1605
     67  C         44.3210  -45.0160   56.0650 C.2    88  MET88       0.2287
     68  O         43.6210  -45.0340   55.0430 O.2    88  MET88      -0.2864
     69  CB        43.1450  -45.8120   58.0910 C.3    88  MET88       0.0413
     70  CG        42.5810  -45.5580   59.4800 C.3    88  MET88       0.0598
     71  SD        41.7200  -47.0010   60.1220 S.3    88  MET88      -0.1393
     72  CE        40.0950  -46.7570   59.4950 C.3    88  MET88       0.0692
     73  N         47.5910  -48.9550   57.5490 N.3    92  ASP92      -0.1239
     74  CA        46.8230  -48.7060   58.7670 C.3    92  ASP92       0.1674
     75  C         45.7130  -49.7340   58.8880 C.2    92  ASP92       0.2266
     76  O         45.5700  -50.3710   59.9330 O.2    92  ASP92      -0.2867
     77  CB        46.1890  -47.3070   58.7530 C.3    92  ASP92       0.1410
     78  CG        47.1650  -46.2010   59.1320 C.2    92  ASP92       0.3668
     79  OD1       48.1820  -46.4850   59.8140 O.co2  92  ASP92      -0.2456
     80  OD2       46.8980  -45.0330   58.7570 O.co2  92  ASP92      -0.2456
     81  N         46.0390  -52.3270   61.8880 N.3    96  ASN96      -0.1225
     82  CA        45.1780  -51.9910   63.0010 C.3    96  ASN96       0.1785
     83  C         43.7640  -52.4850   62.9490 C.2    96  ASN96       0.2597
     84  O         43.0490  -52.3830   63.9540 O.2    96  ASN96      -0.2718
     85  CB        45.1930  -50.4880   63.2450 C.3    96  ASN96       0.1169
     86  CG        46.5040  -50.0220   63.8180 C.2    96  ASN96       0.2627
     87  OD1       46.7280  -50.1070   65.0270 O.2    96  ASN96      -0.2716
     88  ND2       47.3970  -49.5580   62.9540 N.am   96  ASN96      -0.0877
     89  N         43.3420  -53.0050   61.8020 N.am   97  LEU97      -0.1980
     90  CA        41.9870  -53.4930   61.7130 C.3    97  LEU97       0.1596
     91  C         41.8770  -54.9900   61.5340 C.2    97  LEU97       0.2287
     92  O         41.1410  -55.4610   60.6610 O.2    97  LEU97      -0.2864
     93  CB        41.1960  -52.7300   60.6420 C.3    97  LEU97       0.0297
     94  CG        39.7150  -52.5080   60.9610 C.3    97  LEU97       0.0022
     95  CD1       39.5700  -51.9630   62.3700 C.3    97  LEU97       0.0001
     96  CD2       39.0750  -51.5560   59.9530 C.3    97  LEU97       0.0001
     97  N         45.8610  -57.2390   69.8600 N.3   102  LYS102     -0.1245
     98  CA        45.6370  -56.0420   70.6570 C.3   102  LYS102      0.1561
     99  C         45.7140  -56.5170   72.1060 C.2   102  LYS102      0.2260
    100  O         45.1910  -57.5880   72.4270 O.2   102  LYS102     -0.2867
    101  CB        44.2850  -55.4130   70.3160 C.3   102  LYS102      0.0271
    102  CG        44.2810  -54.7780   68.9130 C.3   102  LYS102      0.0035
    103  CD        42.9980  -54.0150   68.6250 C.3   102  LYS102      0.0206
    104  CE        42.9140  -52.7160   69.4150 C.3   102  LYS102      0.1093
    105  NZ        43.9200  -51.6770   69.0270 N.3   102  LYS102     -0.1314
    106  N         39.9610  -50.8590   74.3380 N.3   125  GLY125     -0.1210
    107  CA        40.5550  -50.5240   73.0540 C.3   125  GLY125      0.1956
    108  C         40.1620  -51.3720   71.8550 C.2   125  GLY125      0.2612
    109  O         40.8490  -51.3510   70.8350 O.2   125  GLY125     -0.2717
    110  N         39.0550  -52.0990   71.9620 N.am  126  VAL126     -0.1965
    111  CA        38.5680  -52.9510   70.8690 C.3   126  VAL126      0.1727
    112  C         37.1120  -52.6110   70.5160 C.2   126  VAL126      0.2617
    113  O         36.3940  -53.4230   69.9160 O.2   126  VAL126     -0.2715
    114  CB        38.6590  -54.4610   71.2410 C.3   126  VAL126      0.0290
    115  CG1       40.1160  -54.9230   71.2720 C.3   126  VAL126      0.0023
    116  CG2       37.9680  -54.7240   72.5830 C.3   126  VAL126      0.0023
    117  N         36.7230  -51.3730   70.8290 N.am  127  GLY127     -0.1940
    118  CA        35.3790  -50.8740   70.6010 C.3   127  GLY127      0.2014
    119  C         34.8240  -50.9620   69.1980 C.2   127  GLY127      0.2639
    120  O         33.6050  -51.0370   69.0310 O.2   127  GLY127     -0.2714
    121  N         35.6790  -50.9400   68.1820 N.am  128  PHE128     -0.1959
    122  CA        35.1800  -51.0290   66.8000 C.3   128  PHE128      0.1771
    123  C         34.3920  -52.3180   66.5820 C.2   128  PHE128      0.2619
    124  O         33.3630  -52.3040   65.9160 O.2   128  PHE128     -0.2715
    125  CB        36.3260  -50.9420   65.7770 C.3   128  PHE128      0.0574
    126  CG        35.9700  -51.4900   64.4160 C.ar  128  PHE128     -0.0200
    127  CD1       35.2210  -50.7310   63.5130 C.ar  128  PHE128     -0.0042
    128  CD2       36.3700  -52.7730   64.0430 C.ar  128  PHE128     -0.0042
    129  CE1       34.8770  -51.2380   62.2590 C.ar  128  PHE128     -0.0003
    130  CE2       36.0300  -53.2960   62.7880 C.ar  128  PHE128     -0.0003
    131  CZ        35.2830  -52.5240   61.8950 C.ar  128  PHE128     -0.0000
    132  N         34.8480  -53.4150   67.1800 N.am  129  TYR129     -0.1974
    133  CA        34.1740  -54.6920   67.0110 C.3   129  TYR129      0.1639
    134  C         32.7570  -54.7650   67.5610 C.2   129  TYR129      0.2290
    135  O         31.9970  -55.6800   67.2060 O.2   129  TYR129     -0.2864
    136  CB        35.0580  -55.8480   67.4910 C.3   129  TYR129      0.0560
    137  CG        36.3560  -55.9170   66.7100 C.ar  129  TYR129     -0.0198
    138  CD1       36.3770  -56.4110   65.4030 C.ar  129  TYR129     -0.0009
    139  CD2       37.5470  -55.4090   67.2420 C.ar  129  TYR129     -0.0009
    140  CE1       37.5460  -56.3900   64.6360 C.ar  129  TYR129      0.0417
    141  CE2       38.7260  -55.3890   66.4820 C.ar  129  TYR129      0.0417
    142  CZ        38.7080  -55.8810   65.1790 C.ar  129  TYR129      0.1957
    143  OH        39.8490  -55.8660   64.4170 O.3   129  TYR129     -0.2866
    144  N         34.4440  -50.8040   55.8130 N.3   140  VAL140     -0.1245
    145  CA        35.0840  -49.5630   56.2200 C.3   140  VAL140      0.1561
    146  C         35.7930  -48.9450   55.0260 C.2   140  VAL140      0.2260
    147  O         36.7480  -49.5110   54.5000 O.2   140  VAL140     -0.2867
    148  CB        36.1030  -49.7750   57.3650 C.3   140  VAL140      0.0252
    149  CG1       36.7760  -48.4230   57.7460 C.3   140  VAL140      0.0019
    150  CG2       35.4070  -50.4060   58.5770 C.3   140  VAL140      0.0019
    151  N         36.8220  -41.3570   57.0300 N.3   174  THR174     -0.1218
    152  CA        36.4780  -42.7620   57.1410 C.3   174  THR174      0.1862
    153  C         34.9780  -42.8770   57.1430 C.2   174  THR174      0.2287
    154  O         34.2860  -42.0260   57.6920 O.2   174  THR174     -0.2866
    155  CB        37.0820  -43.3790   58.4350 C.3   174  THR174      0.1770
    156  OG1       38.5110  -43.3250   58.3520 O.3   174  THR174     -0.2211
    157  CG2       36.6550  -44.8250   58.6120 C.3   174  THR174      0.0375
    158  N         32.1280  -45.8580   57.8730 N.3   176  VAL176     -0.1245
    159  CA        31.8130  -47.1960   58.3660 C.3   176  VAL176      0.1561
    160  C         30.3660  -47.5070   57.9660 C.2   176  VAL176      0.2260
    161  O         29.4430  -46.8090   58.3720 O.2   176  VAL176     -0.2867
    162  CB        31.9600  -47.2870   59.9200 C.3   176  VAL176      0.0252
    163  CG1       31.5230  -48.6520   60.4290 C.3   176  VAL176      0.0019
    164  CG2       33.3970  -47.0310   60.3370 C.3   176  VAL176      0.0019
@<TRIPOS>BOND
     1   147   146    2
     2   146   145    1
     3    68    67    2
     4   144   145    1
     5    67    66    1
     6   145   148    1
     7   151   152    1
     8   152   153    1
     9   152   155    1
    10   153   154    2
    11    65    66    1
    12    65    63   am
    13   148   149    1
    14   148   150    1
    15    48    47    2
    16    66    69    1
    17    56    55    2
    18    73    74    1
    19    62    63    1
    20    62    61    1
    21   158   159    1
    22   160   159    1
    23   160   161    2
    24    63    64    2
    25    69    70    1
    26   156   155    1
    27    47    46    1
    28   159   162    1
    29   155   157    1
    30    55    61   am
    31    55    54    1
    32    77    74    1
    33    77    78    1
    34    80    78   ar
    35    74    75    1
    36    45    46    1
    37    75    76    2
    38    78    79   ar
    39    46    49    1
    40    60    58    1
    41    54    53    1
    42    54    57    1
    43    70    71    1
    44    72    71    1
    45    51    50   ar
    46   162   164    1
    47   162   163    1
    48    96    94    1
    49    58    57    1
    50    50    49    1
    51    50    52   ar
    52    57    59    1
    53    93    94    1
    54    93    90    1
    55    92    91    2
    56    94    95    1
    57    91    90    1
    58    90    89    1
    59    89    83   am
    60    81    82    1
    61   131   129   ar
    62   131   130   ar
    63   129   127   ar
    64   130   128   ar
    65    34    33    2
    66    35    32    1
    67    83    82    1
    68    83    84    2
    69    88    86   am
    70    82    85    1
    71    22    21    1
    72    85    86    1
    73    39    38    2
    74   127   126   ar
    75    38    37    1
    76    33    32    1
    77    86    87    2
    78    21    18    1
    79    32    31    1
    80   128   126   ar
    81     7     6    1
    82   126   125    1
    83   143   142    1
    84    40    37    1
    85    40    41    1
    86    18    19    1
    87    18    17    1
    88    20    19    2
    89   140   142   ar
    90   140   138   ar
    91    37    36    1
    92     8     6    1
    93   142   141   ar
    94     6     5    1
    95    31    25   am
    96     5     2    1
    97   138   137   ar
    98    17    11   am
    99    42    41    1
   100    42    43    1
   101    12    11    2
   102     4     3    2
   103   125   122    1
   104   124   123    2
   105    11    10    1
   106    13    10    1
   107    13    14    1
   108     3     2    1
   109     2     1    1
   110    26    25    2
   111    25    24    1
   112   141   139   ar
   113    16    14   am
   114   123   122    1
   115   123   132   am
   116   137   139   ar
   117   137   136    1
   118   122   121    1
   119    43    44    1
   120    10     9    1
   121   133   132    1
   122   133   136    1
   123   133   134    1
   124    14    15    2
   125   135   134    2
   126    30    28   ar
   127    23    24    1
   128    24    27    1
   129    27    28    1
   130   121   119   am
   131    28    29   ar
   132   103   102    1
   133   103   104    1
   134   102   101    1
   135   105   104    1
   136   120   119    2
   137   119   118    1
   138    97    98    1
   139   113   112    2
   140   101    98    1
   141   112   117   am
   142   112   111    1
   143   118   117    1
   144    98    99    1
   145   109   108    2
   146   111   114    1
   147   111   110    1
   148   114   115    1
   149   114   116    1
   150   108   110   am
   151   108   107    1
   152    99   100    2
   153   107   106    1
