@<TRIPOS>MOLECULE
tmp/1yf6B08.pdb
 111 111 0 0 0
SMALL
GASTEIGER

@<TRIPOS>ATOM
      1  N         77.7450   58.9260   58.8260 N.3   214  HIS214     -0.1226
      2  CA        77.5390   57.8490   57.8630 C.3   214  HIS214      0.1752
      3  C         78.7040   57.8710   56.8590 C.2   214  HIS214      0.2595
      4  O         79.3830   56.8660   56.6550 O.2   214  HIS214     -0.2718
      5  CB        76.2190   58.0840   57.1160 C.3   214  HIS214      0.0759
      6  CG        75.9710   57.1200   56.0000 C.ar  214  HIS214      0.0818
      7  ND1       75.7260   55.7990   56.2480 N.ar  214  HIS214     -0.2268
      8  CD2       75.9360   57.3370   54.6620 C.ar  214  HIS214      0.1154
      9  CE1       75.5450   55.2410   55.0710 C.ar  214  HIS214      0.1986
     10  NE2       75.6580   56.1210   54.0850 N.ar  214  HIS214     -0.2212
     11  N         78.9400   59.0380   56.2560 N.am  215  LEU215     -0.1980
     12  CA        80.0050   59.1980   55.2650 C.3   215  LEU215      0.1596
     13  C         81.4190   59.0380   55.8240 C.2   215  LEU215      0.2287
     14  O         82.2410   58.3530   55.2170 O.2   215  LEU215     -0.2864
     15  CB        79.8730   60.5570   54.5580 C.3   215  LEU215      0.0297
     16  CG        80.8930   60.9110   53.4610 C.3   215  LEU215      0.0022
     17  CD1       80.9590   59.8100   52.3940 C.3   215  LEU215      0.0001
     18  CD2       80.4940   62.2310   52.8220 C.3   215  LEU215      0.0001
     19  N         82.1160   55.4870   56.5080 N.3   218  MET218     -0.1245
     20  CA        82.3420   54.8520   55.2170 C.3   218  MET218      0.1570
     21  C         83.7420   55.1570   54.6850 C.2   218  MET218      0.2261
     22  O         84.4870   54.2540   54.3000 O.2   218  MET218     -0.2867
     23  CB        81.3300   55.3550   54.1830 C.3   218  MET218      0.0387
     24  CG        79.9490   54.7320   54.2550 C.3   218  MET218      0.0595
     25  SD        78.8430   55.4370   52.9810 S.3   218  MET218     -0.1393
     26  CE        80.0690   55.8950   51.6180 C.3   218  MET218      0.0692
     27  N         82.3580   50.1050   46.3270 N.3   252  TRP252     -0.1241
     28  CA        81.1080   50.8590   46.3550 C.3   252  TRP252      0.1605
     29  C         80.2340   50.7010   45.1090 C.2   252  TRP252      0.2264
     30  O         79.0200   50.9100   45.1620 O.2   252  TRP252     -0.2867
     31  CB        81.4050   52.3390   46.6520 C.3   252  TRP252      0.0550
     32  CG        81.9360   52.5150   48.0590 C.ar  252  TRP252      0.0003
     33  CD1       83.1960   52.9110   48.4310 C.ar  252  TRP252      0.0946
     34  CD2       81.2510   52.1770   49.2740 C.ar  252  TRP252      0.0152
     35  NE1       83.3340   52.8310   49.7990 N.ar  252  TRP252     -0.2442
     36  CE2       82.1590   52.3830   50.3400 C.ar  252  TRP252      0.0810
     37  CE3       79.9580   51.7130   49.5640 C.ar  252  TRP252      0.0012
     38  CZ2       81.8140   52.1380   51.6760 C.ar  252  TRP252      0.0191
     39  CZ3       79.6170   51.4690   50.8890 C.ar  252  TRP252      0.0001
     40  CH2       80.5420   51.6820   51.9300 C.ar  252  TRP252      0.0015
     41  N         76.6420   49.2190   46.2190 N.3   256  MET256     -0.1245
     42  CA        75.4810   50.0820   46.0500 C.3   256  MET256      0.1570
     43  C         75.3780   50.7660   44.6830 C.2   256  MET256      0.2261
     44  O         74.5280   51.6340   44.4800 O.2   256  MET256     -0.2867
     45  CB        75.5070   51.1410   47.1680 C.3   256  MET256      0.0387
     46  CG        74.2240   51.9510   47.3420 C.3   256  MET256      0.0595
     47  SD        72.9550   51.1670   48.3320 S.3   256  MET256     -0.1393
     48  CE        73.2250   51.9100   49.8620 C.3   256  MET256      0.0692
     49  N         77.4060   52.9000   43.3130 N.3   258  PHE258     -0.1227
     50  CA        77.8370   54.3010   43.3860 C.3   258  PHE258      0.1736
     51  C         78.9050   54.6580   42.3560 C.2   258  PHE258      0.2595
     52  O         79.6240   53.7880   41.8720 O.2   258  PHE258     -0.2718
     53  CB        78.4970   54.6160   44.7400 C.3   258  PHE258      0.0547
     54  CG        77.5810   54.5740   45.9270 C.ar  258  PHE258     -0.0202
     55  CD1       76.2020   54.6910   45.7840 C.ar  258  PHE258     -0.0042
     56  CD2       78.1200   54.4880   47.2110 C.ar  258  PHE258     -0.0042
     57  CE1       75.3760   54.7300   46.9030 C.ar  258  PHE258     -0.0003
     58  CE2       77.3070   54.5230   48.3320 C.ar  258  PHE258     -0.0003
     59  CZ        75.9300   54.6440   48.1810 C.ar  258  PHE258     -0.0000
     60  N         79.0060   55.9500   42.0440 N.am  259  ASN259     -0.1960
     61  CA        80.0720   56.4510   41.1850 C.3   259  ASN259      0.1819
     62  C         81.0770   56.8790   42.2700 C.2   259  ASN259      0.2621
     63  O         80.6770   57.4540   43.2830 O.2   259  ASN259     -0.2715
     64  CB        79.6390   57.6840   40.3890 C.3   259  ASN259      0.1195
     65  CG        78.8360   57.3380   39.1460 C.2   259  ASN259      0.2630
     66  OD1       78.9660   56.2510   38.5830 O.2   259  ASN259     -0.2716
     67  ND2       78.0180   58.2790   38.6980 N.am  259  ASN259     -0.0877
     68  N         82.3630   56.6130   42.0840 N.am  260  TRP260     -0.1974
     69  CA        83.3350   56.9660   43.1220 C.3   260  TRP260      0.1640
     70  C         84.7430   57.1980   42.5660 C.2   260  TRP260      0.2290
     71  O         85.2390   56.4000   41.7670 O.2   260  TRP260     -0.2864
     72  CB        83.3680   55.8290   44.1530 C.3   260  TRP260      0.0576
     73  CG        84.1570   56.0710   45.4230 C.ar  260  TRP260      0.0006
     74  CD1       83.6420   56.2480   46.6780 C.ar  260  TRP260      0.0946
     75  CD2       85.5890   56.0880   45.5720 C.ar  260  TRP260      0.0152
     76  NE1       84.6570   56.3670   47.5950 N.ar  260  TRP260     -0.2442
     77  CE2       85.8610   56.2750   46.9490 C.ar  260  TRP260      0.0810
     78  CE3       86.6640   55.9660   44.6790 C.ar  260  TRP260      0.0012
     79  CZ2       87.1690   56.3410   47.4580 C.ar  260  TRP260      0.0191
     80  CZ3       87.9690   56.0300   45.1860 C.ar  260  TRP260      0.0001
     81  CH2       88.2060   56.2170   46.5650 C.ar  260  TRP260      0.0015
     82  N         85.0860   61.7050   46.2740 N.3   265  ILE265     -0.1245
     83  CA        84.5660   61.3490   47.5900 C.3   265  ILE265      0.1561
     84  C         84.8370   62.4840   48.5830 C.2   265  ILE265      0.2260
     85  O         84.0630   62.7010   49.5240 O.2   265  ILE265     -0.2867
     86  CB        85.1790   60.0040   48.0950 C.3   265  ILE265      0.0252
     87  CG1       84.4050   59.4980   49.3180 C.3   265  ILE265      0.0019
     88  CG2       86.6510   60.1790   48.4350 C.3   265  ILE265      0.0019
     89  CD1       82.9430   59.1890   49.0380 C.3   265  ILE265      0.0001
     90  N         82.1140   64.9590   48.3610 N.3   268  TRP268     -0.1241
     91  CA        80.9360   64.5350   49.1090 C.3   268  TRP268      0.1605
     92  C         81.1860   64.9310   50.5650 C.2   268  TRP268      0.2264
     93  O         80.2970   65.4480   51.2390 O.2   268  TRP268     -0.2867
     94  CB        80.7410   63.0180   49.0450 C.3   268  TRP268      0.0550
     95  CG        79.9800   62.5360   47.8380 C.ar  268  TRP268      0.0003
     96  CD1       80.5010   62.0250   46.6850 C.ar  268  TRP268      0.0946
     97  CD2       78.5610   62.5330   47.6720 C.ar  268  TRP268      0.0152
     98  NE1       79.4920   61.7040   45.8120 N.ar  268  TRP268     -0.2442
     99  CE2       78.2910   62.0020   46.3930 C.ar  268  TRP268      0.0810
    100  CE3       77.4860   62.9300   48.4830 C.ar  268  TRP268      0.0012
    101  CZ2       76.9890   61.8570   45.9010 C.ar  268  TRP268      0.0191
    102  CZ3       76.1920   62.7860   47.9950 C.ar  268  TRP268      0.0001
    103  CH2       75.9560   62.2520   46.7130 C.ar  268  TRP268      0.0015
    104  N         78.7170   67.4450   52.5430 N.3   272  MET272     -0.1245
    105  CA        77.8750   66.7990   53.5490 C.3   272  MET272      0.1570
    106  C         77.9870   67.5410   54.8870 C.2   272  MET272      0.2261
    107  O         76.9790   67.8070   55.5450 O.2   272  MET272     -0.2867
    108  CB        78.3000   65.3350   53.7360 C.3   272  MET272      0.0387
    109  CG        77.4520   64.5300   54.7370 C.3   272  MET272      0.0595
    110  SD        75.7470   64.2610   54.1820 S.3   272  MET272     -0.1393
    111  CE        75.9550   62.8290   53.1180 C.3   272  MET272      0.0692
@<TRIPOS>BOND
     1    66    65    2
     2    67    65   am
     3    65    64    1
     4    64    61    1
     5    61    60    1
     6    61    62    1
     7    71    70    2
     8    52    51    2
     9    60    51   am
    10    68    62   am
    11    68    69    1
    12    62    63    2
    13    51    50    1
    14    70    69    1
    15    69    72    1
    16    49    50    1
    17    50    53    1
    18    72    73    1
    19    44    43    2
    20    78    80   ar
    21    78    75   ar
    22    43    42    1
    23    53    54    1
    24    29    30    2
    25    29    28    1
    26    80    81   ar
    27    73    75   ar
    28    73    74   ar
    29    75    77   ar
    30    55    54   ar
    31    55    57   ar
    32    98    99   ar
    33    98    96   ar
    34   101    99   ar
    35   101   103   ar
    36    54    56   ar
    37    42    41    1
    38    42    45    1
    39    82    83    1
    40    27    28    1
    41    28    31    1
    42    99    97   ar
    43    81    79   ar
    44    31    32    1
    45    74    76   ar
    46    96    95   ar
    47   103   102   ar
    48    57    59   ar
    49    77    79   ar
    50    77    76   ar
    51    45    46    1
    52    56    58   ar
    53    46    47    1
    54    83    86    1
    55    83    84    1
    56    97    95   ar
    57    97   100   ar
    58    95    94    1
    59   102   100   ar
    60    32    33   ar
    61    32    34   ar
    62    86    88    1
    63    86    87    1
    64    59    58   ar
    65    47    48    1
    66    90    91    1
    67    33    35   ar
    68    84    85    2
    69    89    87    1
    70    94    91    1
    71    91    92    1
    72    34    37   ar
    73    34    36   ar
    74    37    39   ar
    75    35    36   ar
    76    36    38   ar
    77    92    93    2
    78    39    40   ar
    79    26    25    1
    80    38    40   ar
    81    17    16    1
    82   104   105    1
    83    18    16    1
    84    25    24    1
    85   111   110    1
    86    16    15    1
    87   105   108    1
    88   105   106    1
    89   108   109    1
    90    10     8   ar
    91    10     9   ar
    92   110   109    1
    93    23    24    1
    94    23    20    1
    95    22    21    2
    96    15    12    1
    97     8     6   ar
    98    21    20    1
    99   106   107    2
   100     9     7   ar
   101    14    13    2
   102    20    19    1
   103    12    13    1
   104    12    11    1
   105     6     7   ar
   106     6     5    1
   107    11     3   am
   108     4     3    2
   109     3     2    1
   110     5     2    1
   111     2     1    1
