@<TRIPOS>MOLECULE
tmp/1yfjK00.pdb
 229 229 0 0 0
SMALL
GASTEIGER

@<TRIPOS>ATOM
      1  N         51.5990  156.9950   86.2670 N.3     7  TYR7       -0.1241
      2  CA        52.7580  157.5080   85.5730 C.3     7  TYR7        0.1605
      3  C         52.7170  159.0150   85.3900 C.2     7  TYR7        0.2264
      4  O         51.7580  159.5670   84.8730 O.2     7  TYR7       -0.2867
      5  CB        52.8550  156.8230   84.1960 C.3     7  TYR7        0.0534
      6  CG        54.2590  156.7070   83.6330 C.ar    7  TYR7       -0.0201
      7  CD1       55.0970  155.6620   84.0130 C.ar    7  TYR7       -0.0009
      8  CD2       54.7310  157.6090   82.6720 C.ar    7  TYR7       -0.0009
      9  CE1       56.3680  155.5020   83.4490 C.ar    7  TYR7        0.0417
     10  CE2       56.0140  157.4630   82.1010 C.ar    7  TYR7        0.0417
     11  CZ        56.8180  156.4090   82.4990 C.ar    7  TYR7        0.1957
     12  OH        58.0780  156.2670   81.9730 O.3     7  TYR7       -0.2866
     13  N         52.8730  162.2870   83.8800 N.3     9  GLY9       -0.1210
     14  CA        52.6960  162.7050   82.4980 C.3     9  GLY9        0.1956
     15  C         51.8060  161.8150   81.6610 C.2     9  GLY9        0.2612
     16  O         51.7430  162.0020   80.4430 O.2     9  GLY9       -0.2717
     17  N         51.1100  160.8570   82.2840 N.am   10  ASN10      -0.1960
     18  CA        50.2410  159.9670   81.5250 C.3    10  ASN10       0.1819
     19  C         49.1190  160.7460   80.8430 C.2    10  ASN10       0.2621
     20  O         48.8070  161.8650   81.2340 O.2    10  ASN10      -0.2715
     21  CB        49.6530  158.9150   82.4470 C.3    10  ASN10       0.1195
     22  CG        48.5660  159.4770   83.3440 C.2    10  ASN10       0.2630
     23  OD1       47.4380  159.7380   82.9050 O.2    10  ASN10      -0.2716
     24  ND2       48.9030  159.6790   84.6030 N.am   10  ASN10      -0.0877
     25  N         48.5020  160.1380   79.8380 N.am   11  LYS11      -0.1977
     26  CA        47.4170  160.7610   79.0720 C.3    11  LYS11       0.1596
     27  C         46.0460  160.1090   79.3040 C.2    11  LYS11       0.2287
     28  O         45.1990  160.1310   78.4200 O.2    11  LYS11      -0.2864
     29  CB        47.7440  160.6860   77.5680 C.3    11  LYS11       0.0298
     30  CG        48.9340  161.5010   77.1050 C.3    11  LYS11       0.0038
     31  CD        48.7010  162.9940   77.3280 C.3    11  LYS11       0.0206
     32  CE        49.9560  163.8190   77.0770 C.3    11  LYS11       0.1093
     33  NZ        51.0230  163.5800   78.1080 N.3    11  LYS11      -0.1314
     34  N         53.5310  154.3620   69.1540 N.3    30  ASP30      -0.1225
     35  CA        53.5770  155.1240   70.3760 C.3    30  ASP30       0.1805
     36  C         55.0610  155.2530   70.7130 C.2    30  ASP30       0.2598
     37  O         55.5970  154.4250   71.4560 O.2    30  ASP30      -0.2718
     38  CB        52.7530  154.4480   71.4790 C.3    30  ASP30       0.1424
     39  CG        52.4540  155.3040   72.6910 C.2    30  ASP30       0.3668
     40  OD1       52.8380  156.4900   72.6740 O.co2  30  ASP30      -0.2456
     41  OD2       51.8300  154.7820   73.6520 O.co2  30  ASP30      -0.2456
     42  N         55.7040  156.2820   70.1820 N.am   31  LEU31      -0.1966
     43  CA        57.1320  156.4790   70.2930 C.3    31  LEU31       0.1728
     44  C         57.7500  156.7030   71.6820 C.2    31  LEU31       0.2616
     45  O         58.9270  156.4090   71.8990 O.2    31  LEU31      -0.2715
     46  CB        57.5030  157.6140   69.3560 C.3    31  LEU31       0.0311
     47  CG        58.7740  157.4130   68.5520 C.3    31  LEU31       0.0022
     48  CD1       58.7770  156.0580   67.8550 C.3    31  LEU31       0.0001
     49  CD2       58.9300  158.5360   67.5300 C.3    31  LEU31       0.0001
     50  N         56.9730  157.2170   72.6350 N.am   32  PHE32      -0.1960
     51  CA        57.4290  157.4280   74.0110 C.3    32  PHE32       0.1771
     52  C         56.2840  156.8660   74.8460 C.2    32  PHE32       0.2620
     53  O         55.6620  157.5950   75.6060 O.2    32  PHE32      -0.2715
     54  CB        57.5560  158.9130   74.3520 C.3    32  PHE32       0.0574
     55  CG        58.4630  159.6930   73.4460 C.ar   32  PHE32      -0.0200
     56  CD1       58.0920  159.9790   72.1380 C.ar   32  PHE32      -0.0042
     57  CD2       59.6970  160.1490   73.9060 C.ar   32  PHE32      -0.0042
     58  CE1       58.9480  160.7180   71.2870 C.ar   32  PHE32      -0.0003
     59  CE2       60.5570  160.8810   73.0740 C.ar   32  PHE32      -0.0003
     60  CZ        60.1810  161.1680   71.7570 C.ar   32  PHE32      -0.0000
     61  N         56.0440  155.5740   74.7430 N.am   33  CYS33      -0.1954
     62  CA        54.8960  154.9470   75.3900 C.3    33  CYS33       0.1843
     63  C         54.7230  155.1190   76.8970 C.2    33  CYS33       0.2626
     64  O         53.6050  155.0470   77.3920 O.2    33  CYS33      -0.2714
     65  CB        54.8720  153.4690   75.0460 C.3    33  CYS33       0.0997
     66  SG        56.2980  152.5360   75.6920 S.3    33  CYS33      -0.0797
     67  N         55.7780  155.3250   77.6390 N.am   34  GLY34      -0.1940
     68  CA        55.6140  155.5120   79.0770 C.3    34  GLY34       0.2014
     69  C         54.7520  154.4250   79.7860 C.2    34  GLY34       0.2639
     70  O         54.9910  153.2370   79.6480 O.2    34  GLY34      -0.2714
     71  N         53.7460  154.8840   80.5390 N.am   35  GLY35      -0.1954
     72  CA        52.8680  154.0170   81.3270 C.3    35  GLY35       0.1869
     73  C         51.8450  153.2470   80.4840 C.2    35  GLY35       0.2309
     74  O         51.0460  152.4630   80.9980 O.2    35  GLY35      -0.2863
     75  N         49.2960  154.4960   78.6470 N.3    37  SER37      -0.1202
     76  CA        47.9330  155.0340   78.6630 C.3    37  SER37       0.2020
     77  C         47.4030  155.1790   77.2370 C.2    37  SER37       0.2618
     78  O         46.1960  155.0230   76.9990 O.2    37  SER37      -0.2717
     79  CB        47.8930  156.3850   79.3890 C.3    37  SER37       0.2103
     80  OG        48.2540  157.4390   78.5150 O.3    37  SER37      -0.2182
     81  N         48.2930  155.4690   76.3090 N.am   38  VAL38      -0.1979
     82  CA        47.8770  155.6110   74.9040 C.3    38  VAL38       0.1595
     83  C         47.7340  154.2420   74.2380 C.2    38  VAL38       0.2287
     84  O         46.6820  153.9130   73.6870 O.2    38  VAL38      -0.2864
     85  CB        48.9010  156.4010   74.0410 C.3    38  VAL38       0.0276
     86  CG1       48.6630  156.1610   72.5500 C.3    38  VAL38       0.0022
     87  CG2       48.8450  157.8840   74.3630 C.3    38  VAL38       0.0022
     88  N         57.0370  151.9800   72.1910 N.3    49  ASN49      -0.1225
     89  CA        58.4740  152.1700   72.3820 C.3    49  ASN49       0.1785
     90  C         58.8490  153.0990   73.5310 C.2    49  ASN49       0.2597
     91  O         58.1990  154.1180   73.7580 O.2    49  ASN49      -0.2718
     92  CB        59.1050  152.7440   71.1060 C.3    49  ASN49       0.1169
     93  CG        60.6210  152.8310   71.1970 C.2    49  ASN49       0.2627
     94  OD1       61.3140  151.8220   71.1470 O.2    49  ASN49      -0.2716
     95  ND2       61.1370  154.0350   71.3460 N.am   49  ASN49      -0.0877
     96  N         59.8950  152.7510   74.2670 N.am   50  ASP50      -0.1960
     97  CA        60.3580  153.6470   75.3170 C.3    50  ASP50       0.1840
     98  C         61.8140  153.4000   75.5780 C.2    50  ASP50       0.2622
     99  O         62.2530  152.2610   75.6400 O.2    50  ASP50      -0.2715
    100  CB        59.5700  153.4890   76.6140 C.3    50  ASP50       0.1450
    101  CG        59.5950  154.7710   77.4650 C.2    50  ASP50       0.3671
    102  OD1       60.6530  155.1110   78.0330 O.co2  50  ASP50      -0.2456
    103  OD2       58.5550  155.4500   77.5510 O.co2  50  ASP50      -0.2456
    104  N         62.5720  154.4740   75.7450 N.am   51  ILE51      -0.1963
    105  CA        64.0000  154.3390   75.9650 C.3    51  ILE51       0.1727
    106  C         64.3840  153.6660   77.2820 C.2    51  ILE51       0.2616
    107  O         65.4990  153.1930   77.4150 O.2    51  ILE51      -0.2715
    108  CB        64.6800  155.7060   75.8660 C.3    51  ILE51       0.0290
    109  CG1       66.1330  155.5090   75.4570 C.3    51  ILE51       0.0022
    110  CG2       64.5740  156.4560   77.1970 C.3    51  ILE51       0.0023
    111  CD1       66.8280  156.7980   75.0620 C.3    51  ILE51       0.0001
    112  N         63.4640  153.6200   78.2450 N.am   52  GLN52      -0.1977
    113  CA        63.7260  152.9970   79.5470 C.3    52  GLN52       0.1601
    114  C         63.5090  151.4820   79.5240 C.2    52  GLN52       0.2287
    115  O         62.4670  150.9590   79.9280 O.2    52  GLN52      -0.2864
    116  CB        62.8460  153.6460   80.6280 C.3    52  GLN52       0.0394
    117  CG        63.2130  155.0900   80.8890 C.3    52  GLN52       0.0908
    118  CD        62.7130  155.5670   82.2300 C.2    52  GLN52       0.2608
    119  OE1       63.3070  155.2580   83.2740 O.2    52  GLN52      -0.2717
    120  NE2       61.6000  156.3120   82.2190 N.am   52  GLN52      -0.0878
    121  N         63.9820  151.6060   72.1600 N.3   155  LEU155     -0.1231
    122  CA        64.9960  152.2390   71.3580 C.3   155  LEU155      0.1693
    123  C         64.8270  153.7340   71.5350 C.2   155  LEU155      0.2592
    124  O         63.8020  154.2050   72.0230 O.2   155  LEU155     -0.2718
    125  CB        64.7930  151.9050   69.8860 C.3   155  LEU155      0.0284
    126  CG        64.6100  150.4660   69.3810 C.3   155  LEU155      0.0019
    127  CD1       64.5390  150.4980   67.8310 C.3   155  LEU155      0.0001
    128  CD2       65.7510  149.5750   69.8250 C.3   155  LEU155      0.0001
    129  N         65.8330  154.4870   71.1310 N.am  156  HIS156     -0.1962
    130  CA        65.7460  155.9360   71.2130 C.3   156  HIS156      0.1787
    131  C         64.7680  156.2940   70.0990 C.2   156  HIS156      0.2620
    132  O         64.8290  155.7030   69.0310 O.2   156  HIS156     -0.2715
    133  CB        67.1220  156.5140   70.9520 C.3   156  HIS156      0.0785
    134  CG        67.1600  158.0030   70.9290 C.ar  156  HIS156      0.0821
    135  ND1       66.6770  158.7410   69.8670 N.ar  156  HIS156     -0.2267
    136  CD2       67.7040  158.8900   71.7930 C.ar  156  HIS156      0.1154
    137  CE1       66.9370  160.0180   70.0760 C.ar  156  HIS156      0.1986
    138  NE2       67.5580  160.1340   71.2350 N.ar  156  HIS156     -0.2212
    139  N         63.8560  157.2290   70.3290 N.am  157  PHE157     -0.1974
    140  CA        62.8790  157.5690   69.2840 C.3   157  PHE157      0.1639
    141  C         63.4080  157.7480   67.8500 C.2   157  PHE157      0.2290
    142  O         62.7460  157.3600   66.8960 O.2   157  PHE157     -0.2864
    143  CB        62.0730  158.8240   69.6780 C.3   157  PHE157      0.0560
    144  CG        62.8170  160.1190   69.4880 C.ar  157  PHE157     -0.0200
    145  CD1       62.7930  160.7710   68.2760 C.ar  157  PHE157     -0.0042
    146  CD2       63.5620  160.6700   70.5220 C.ar  157  PHE157     -0.0042
    147  CE1       63.4940  161.9400   68.0810 C.ar  157  PHE157     -0.0003
    148  CE2       64.2660  161.8440   70.3410 C.ar  157  PHE157     -0.0003
    149  CZ        64.2310  162.4810   69.1110 C.ar  157  PHE157     -0.0000
    150  N         52.4940  158.7800   67.1020 N.3   169  TYR169     -0.1241
    151  CA        52.0670  159.5750   68.2350 C.3   169  TYR169      0.1605
    152  C         53.2560  159.8340   69.1420 C.2   169  TYR169      0.2264
    153  O         53.9520  158.9140   69.5700 O.2   169  TYR169     -0.2867
    154  CB        50.9830  158.8710   69.0460 C.3   169  TYR169      0.0534
    155  CG        50.7140  159.6530   70.2960 C.ar  169  TYR169     -0.0201
    156  CD1       49.9940  160.8450   70.2230 C.ar  169  TYR169     -0.0009
    157  CD2       51.1830  159.2360   71.5420 C.ar  169  TYR169     -0.0009
    158  CE1       49.7470  161.5900   71.3400 C.ar  169  TYR169      0.0417
    159  CE2       50.9430  159.9790   72.6580 C.ar  169  TYR169      0.0417
    160  CZ        50.2120  161.1640   72.5500 C.ar  169  TYR169      0.1957
    161  OH        49.9720  161.9140   73.6800 O.3   169  TYR169     -0.2866
    162  N         54.5490  161.8520   72.5040 N.3   171  ASP171     -0.1225
    163  CA        54.3680  162.4470   73.8250 C.3   171  ASP171      0.1790
    164  C         55.6620  162.3540   74.6350 C.2   171  ASP171      0.2440
    165  O         55.7660  161.5530   75.5740 O.2   171  ASP171     -0.2733
    166  CB        53.2600  161.7390   74.6440 C.3   171  ASP171      0.1423
    167  CG        53.0250  162.3930   75.9990 C.2   171  ASP171      0.3668
    168  OD1       53.2790  163.6000   76.1170 O.co2 171  ASP171     -0.2456
    169  OD2       52.5740  161.6970   76.9220 O.co2 171  ASP171     -0.2456
    170  N         56.6290  163.1750   74.2680 N.am  172  PRO172     -0.2718
    171  CA        57.9380  163.1600   74.9220 C.3   172  PRO172      0.1520
    172  C         58.0680  163.9100   76.2100 C.2   172  PRO172      0.2440
    173  O         57.1380  164.5490   76.6810 O.2   172  PRO172     -0.2731
    174  CB        58.8270  163.7840   73.8560 C.3   172  PRO172      0.0310
    175  CG        57.9240  164.9380   73.3850 C.3   172  PRO172      0.0237
    176  CD        56.5140  164.3030   73.3190 C.3   172  PRO172      0.0939
    177  N         59.2290  163.7790   76.8710 N.am  173  PRO173     -0.2727
    178  CA        59.4770  164.5440   78.0860 C.3   173  PRO173      0.1402
    179  C         59.2960  165.9980   77.7240 C.2   173  PRO173      0.2269
    180  O         59.7670  166.4140   76.6690 O.2   173  PRO173     -0.2865
    181  CB        60.9190  164.2110   78.4940 C.3   173  PRO173      0.0296
    182  CG        61.2790  162.9870   77.6900 C.3   173  PRO173      0.0237
    183  CD        60.4310  163.0140   76.4480 C.3   173  PRO173      0.0939
    184  N         62.2320  161.5070   84.0290 N.3   181  TYR181     -0.1241
    185  CA        62.6500  161.1500   82.6730 C.3   181  TYR181      0.1605
    186  C         63.1620  162.3460   81.8990 C.2   181  TYR181      0.2264
    187  O         63.6820  162.2300   80.7950 O.2   181  TYR181     -0.2867
    188  CB        61.5480  160.3900   81.9050 C.3   181  TYR181      0.0534
    189  CG        60.1390  160.9540   81.9560 C.ar  181  TYR181     -0.0201
    190  CD1       59.7820  162.1110   81.2290 C.ar  181  TYR181     -0.0009
    191  CD2       59.1470  160.3020   82.6860 C.ar  181  TYR181     -0.0009
    192  CE1       58.4800  162.5810   81.2270 C.ar  181  TYR181      0.0417
    193  CE2       57.8350  160.7770   82.6970 C.ar  181  TYR181      0.0417
    194  CZ        57.5100  161.9130   81.9640 C.ar  181  TYR181      0.1957
    195  OH        56.2130  162.3660   81.9710 O.3   181  TYR181     -0.2866
    196  N         66.6830  162.5050   80.2280 N.3   184  PHE184     -0.1227
    197  CA        67.0160  161.9980   78.8910 C.3   184  PHE184      0.1736
    198  C         66.7400  163.0790   77.8640 C.2   184  PHE184      0.2595
    199  O         66.8800  162.8230   76.6680 O.2   184  PHE184     -0.2718
    200  CB        66.1160  160.8100   78.4820 C.3   184  PHE184      0.0547
    201  CG        66.2380  159.6090   79.3590 C.ar  184  PHE184     -0.0202
    202  CD1       67.4260  158.8890   79.4100 C.ar  184  PHE184     -0.0042
    203  CD2       65.1910  159.2190   80.1730 C.ar  184  PHE184     -0.0042
    204  CE1       67.5730  157.8000   80.2660 C.ar  184  PHE184     -0.0003
    205  CE2       65.3350  158.1160   81.0400 C.ar  184  PHE184     -0.0003
    206  CZ        66.5360  157.4200   81.0730 C.ar  184  PHE184     -0.0000
    207  N         66.3540  164.2740   78.3240 N.am  185  TRP185     -0.1976
    208  CA        65.9360  165.3420   77.4050 C.3   185  TRP185      0.1640
    209  C         66.7590  166.6230   77.4030 C.2   185  TRP185      0.2290
    210  O         67.4840  166.9090   78.3400 O.2   185  TRP185     -0.2864
    211  CB        64.4560  165.6450   77.6790 C.3   185  TRP185      0.0576
    212  CG        63.6800  166.1050   76.5060 C.ar  185  TRP185      0.0006
    213  CD1       63.1440  167.3540   76.3090 C.ar  185  TRP185      0.0946
    214  CD2       63.3950  165.3570   75.3240 C.ar  185  TRP185      0.0152
    215  NE1       62.5580  167.4300   75.0650 N.ar  185  TRP185     -0.2442
    216  CE2       62.6970  166.2210   74.4370 C.ar  185  TRP185      0.0810
    217  CE3       63.6650  164.0430   74.9170 C.ar  185  TRP185      0.0012
    218  CZ2       62.2740  165.8120   73.1640 C.ar  185  TRP185      0.0191
    219  CZ3       63.2360  163.6360   73.6370 C.ar  185  TRP185      0.0001
    220  CH2       62.5530  164.5220   72.7850 C.ar  185  TRP185      0.0015
    221  N         67.7130  167.4380   71.8860 N.3   189  GLU189     -0.1245
    222  CA        66.8900  166.2620   71.6080 C.3   189  GLU189      0.1567
    223  C         65.6030  166.7610   70.9830 C.2   189  GLU189      0.2260
    224  O         65.0990  166.1920   70.0190 O.2   189  GLU189     -0.2867
    225  CB        66.5610  165.4920   72.8940 C.3   189  GLU189      0.0388
    226  CG        67.7360  164.7300   73.4850 C.3   189  GLU189      0.1160
    227  CD        68.2300  163.5980   72.5810 C.2   189  GLU189      0.3649
    228  OE1       67.5250  162.5810   72.4250 O.co2 189  GLU189     -0.2457
    229  OE2       69.3340  163.7320   72.0190 O.co2 189  GLU189     -0.2457
@<TRIPOS>BOND
     1   142   141    2
     2   150   151    1
     3    49    47    1
     4   127   126    1
     5   141   140    1
     6    48    47    1
     7   147   145   ar
     8   147   149   ar
     9   151   154    1
    10   151   152    1
    11   145   144   ar
    12    47    46    1
    13   132   131    2
    14   154   155    1
    15   149   148   ar
    16   152   153    2
    17    34    35    1
    18   140   143    1
    19   140   139    1
    20    46    43    1
    21   126   128    1
    22   126   125    1
    23   144   143    1
    24   144   146   ar
    25   135   137   ar
    26   135   134   ar
    27   125   122    1
    28   224   223    2
    29   137   138   ar
    30   131   139   am
    31   131   130    1
    32    42    43    1
    33    42    36   am
    34   156   155   ar
    35   156   158   ar
    36    43    44    1
    37   155   157   ar
    38   148   146   ar
    39    35    36    1
    40    35    38    1
    41    36    37    2
    42   134   133    1
    43   134   136   ar
    44   133   130    1
    45   223   222    1
    46    92    93    1
    47    92    89    1
    48   129   130    1
    49   129   123   am
    50    94    93    2
    51    93    95   am
    52   138   136   ar
    53    58    60   ar
    54    58    56   ar
    55   158   160   ar
    56   122   123    1
    57   122   121    1
    58    38    39    1
    59   123   124    2
    60   157   159   ar
    61   222   221    1
    62   222   225    1
    63    44    45    2
    64    44    50   am
    65    60    59   ar
    66   229   227   ar
    67    56    55   ar
    68    88    89    1
    69    89    90    1
    70   228   227   ar
    71   162   163    1
    72    86    85    1
    73   160   159   ar
    74   160   161    1
    75   227   226    1
    76    50    51    1
    77    40    39   ar
    78    39    41   ar
    79   220   218   ar
    80   220   219   ar
    81   225   226    1
    82    59    57   ar
    83   218   216   ar
    84   176   175    1
    85   176   170    1
    86   175   174    1
    87    55    57   ar
    88    55    54    1
    89    90    91    2
    90    90    96   am
    91   219   217   ar
    92    84    83    2
    93   163   164    1
    94   163   166    1
    95   174   171    1
    96    51    54    1
    97    51    52    1
    98    85    87    1
    99    85    82    1
   100    83    82    1
   101    96    97    1
   102   170   164   am
   103   170   171    1
   104   216   215   ar
   105   216   214   ar
   106   164   165    2
   107   166   167    1
   108    61    52   am
   109    61    62    1
   110    52    53    2
   111    82    81    1
   112   217   214   ar
   113   171   172    1
   114    65    62    1
   115    65    66    1
   116   111   109    1
   117   215   213   ar
   118    97    98    1
   119    97   100    1
   120   214   212   ar
   121    62    63    1
   122   109   108    1
   123    98    99    2
   124    98   104   am
   125   104   105    1
   126   108   105    1
   127   108   110    1
   128   105   106    1
   129   167   168   ar
   130   167   169   ar
   131   172   173    2
   132   172   177   am
   133   213   212   ar
   134    81    77   am
   135   183   177    1
   136   183   182    1
   137   212   211    1
   138   100   101    1
   139   199   198    2
   140   180   179    2
   141   177   178    1
   142    63    64    2
   143    63    67   am
   144    78    77    2
   145    32    31    1
   146    32    33    1
   147    30    31    1
   148    30    29    1
   149    77    76    1
   150   106   107    2
   151   106   112   am
   152   209   208    1
   153   209   210    2
   154   208   211    1
   155   208   207    1
   156   101   103   ar
   157   101   102   ar
   158    29    26    1
   159    67    68    1
   160   182   181    1
   161   179   178    1
   162   198   207   am
   163   198   197    1
   164   178   181    1
   165   112   113    1
   166    28    27    2
   167   200   197    1
   168   200   201    1
   169    80    79    1
   170    75    76    1
   171    76    79    1
   172   197   196    1
   173    26    27    1
   174    26    25    1
   175    68    69    1
   176   201   202   ar
   177   201   203   ar
   178   202   204   ar
   179   114   113    1
   180   114   115    2
   181   113   116    1
   182    70    69    2
   183    69    71   am
   184    25    19   am
   185   203   205   ar
   186   204   206   ar
   187    16    15    2
   188    73    74    2
   189    73    72    1
   190    71    72    1
   191   116   117    1
   192   187   186    2
   193    19    20    2
   194    19    18    1
   195   117   118    1
   196   205   206   ar
   197   192   190   ar
   198   192   194   ar
   199   190   189   ar
   200    18    17    1
   201    18    21    1
   202    15    17   am
   203    15    14    1
   204   186   185    1
   205   188   189    1
   206   188   185    1
   207   189   191   ar
   208   194   195    1
   209   194   193   ar
   210    12    11    1
   211    10    11   ar
   212    10     8   ar
   213   120   118   am
   214   118   119    2
   215    21    22    1
   216    14    13    1
   217    11     9   ar
   218     8     6   ar
   219   185   184    1
   220   191   193   ar
   221    23    22    2
   222    22    24   am
   223     9     7   ar
   224     6     7   ar
   225     6     5    1
   226     5     2    1
   227     4     3    2
   228     3     2    1
   229     2     1    1
