@<TRIPOS>MOLECULE
tmp/1yflF00.pdb
 232 234 0 0 0
SMALL
GASTEIGER

@<TRIPOS>ATOM
      1  N         96.0650   88.3430   57.6510 N.3     7  TYR7       -0.1241
      2  CA        95.7670   86.9620   57.9470 C.3     7  TYR7        0.1605
      3  C         94.2880   86.6800   57.9340 C.2     7  TYR7        0.2264
      4  O         93.4630   87.4060   58.4930 O.2     7  TYR7       -0.2867
      5  CB        96.3560   86.5710   59.2660 C.3     7  TYR7        0.0534
      6  CG        96.4610   85.0920   59.5550 C.ar    7  TYR7       -0.0201
      7  CD1       97.6100   84.4040   59.1990 C.ar    7  TYR7       -0.0009
      8  CD2       95.4550   84.3890   60.1790 C.ar    7  TYR7       -0.0009
      9  CE1       97.7740   83.0470   59.4750 C.ar    7  TYR7        0.0417
     10  CE2       95.6050   83.0320   60.4920 C.ar    7  TYR7        0.0417
     11  CZ        96.7720   82.3770   60.1390 C.ar    7  TYR7        0.1957
     12  OH        96.9380   81.0370   60.4480 O.3     7  TYR7       -0.2866
     13  N         90.9610   85.3920   58.7910 N.3     9  GLY9       -0.1210
     14  CA        90.2760   85.1020   60.0220 C.3     9  GLY9        0.1956
     15  C         90.6290   86.1080   61.0860 C.2     9  GLY9        0.2612
     16  O         89.9710   86.1630   62.1240 O.2     9  GLY9       -0.2717
     17  N         91.6600   86.9080   60.8230 N.am   10  ASN10      -0.1960
     18  CA        92.1240   87.9150   61.7720 C.3    10  ASN10       0.1819
     19  C         90.9480   88.6050   62.4500 C.2    10  ASN10       0.2621
     20  O         89.8230   88.5700   61.9550 O.2    10  ASN10      -0.2715
     21  CB        92.9870   88.9560   61.0710 C.3    10  ASN10       0.1195
     22  CG        92.1780   90.1190   60.5660 C.2    10  ASN10       0.2630
     23  OD1       91.5820   90.8520   61.3510 O.2    10  ASN10      -0.2716
     24  ND2       92.1420   90.2960   59.2500 N.am   10  ASN10      -0.0877
     25  N         91.2150   89.2620   63.5720 N.am   11  LYS11      -0.1977
     26  CA        90.1510   89.9190   64.3190 C.3    11  LYS11       0.1596
     27  C         90.3370   91.4160   64.5450 C.2    11  LYS11       0.2287
     28  O         89.5520   92.0330   65.2380 O.2    11  LYS11      -0.2864
     29  CB        89.9840   89.2110   65.6720 C.3    11  LYS11       0.0298
     30  CG        89.5180   87.7500   65.5730 C.3    11  LYS11       0.0038
     31  CD        88.1960   87.6400   64.7950 C.3    11  LYS11       0.0206
     32  CE        87.4490   86.3520   65.0820 C.3    11  LYS11       0.1093
     33  NZ        88.1910   85.1830   64.6140 N.3    11  LYS11      -0.1314
     34  N         96.5800   82.9110   73.8760 N.3    30  ASP30      -0.1225
     35  CA        95.9840   83.0390   72.5500 C.3    30  ASP30       0.1805
     36  C         96.2010   81.6700   71.8920 C.2    30  ASP30       0.2598
     37  O         97.1290   81.4690   71.0930 O.2    30  ASP30      -0.2718
     38  CB        96.6740   84.1460   71.7530 C.3    30  ASP30       0.1424
     39  CG        95.8100   84.6590   70.6110 C.2    30  ASP30       0.3668
     40  OD1       94.8330   83.9470   70.2780 O.co2  30  ASP30      -0.2456
     41  OD2       96.1010   85.7500   70.0490 O.co2  30  ASP30      -0.2456
     42  N         95.3360   80.7320   72.2710 N.am   31  LEU31      -0.1966
     43  CA        95.3800   79.3490   71.8270 C.3    31  LEU31       0.1728
     44  C         95.6100   79.1610   70.3380 C.2    31  LEU31       0.2616
     45  O         96.4680   78.3800   69.9270 O.2    31  LEU31      -0.2715
     46  CB        94.0960   78.6660   72.2360 C.3    31  LEU31       0.0311
     47  CG        94.1600   77.1590   72.4750 C.3    31  LEU31       0.0022
     48  CD1       95.4270   76.7850   73.2220 C.3    31  LEU31       0.0001
     49  CD2       92.9240   76.6910   73.2410 C.3    31  LEU31       0.0001
     50  N         94.8290   79.8590   69.5080 N.am   32  PHE32      -0.1960
     51  CA        94.9130   79.8450   68.0360 C.3    32  PHE32       0.1771
     52  C         95.1780   81.2880   67.6600 C.2    32  PHE32       0.2620
     53  O         94.2530   82.1060   67.6950 O.2    32  PHE32      -0.2715
     54  CB        93.5970   79.3290   67.3930 C.3    32  PHE32       0.0574
     55  CG        93.0450   78.0740   68.0170 C.ar   32  PHE32      -0.0200
     56  CD1       92.2440   78.1420   69.1570 C.ar   32  PHE32      -0.0042
     57  CD2       93.3180   76.8160   67.4740 C.ar   32  PHE32      -0.0042
     58  CE1       91.7300   76.9800   69.7480 C.ar   32  PHE32      -0.0003
     59  CE2       92.8070   75.6660   68.0580 C.ar   32  PHE32      -0.0003
     60  CZ        92.0130   75.7510   69.1980 C.ar   32  PHE32      -0.0000
     61  N         96.4660   81.6380   67.3040 N.am   33  CYS33      -0.1954
     62  CA        96.8150   83.0480   67.0580 C.3    33  CYS33       0.1843
     63  C         97.1880   83.4120   65.6360 C.2    33  CYS33       0.2626
     64  O         97.0020   84.5730   65.2650 O.2    33  CYS33      -0.2714
     65  CB        97.8860   83.4770   68.0420 C.3    33  CYS33       0.0997
     66  SG        99.4720   82.5890   67.8690 S.3    33  CYS33      -0.0797
     67  N         97.6740   82.5360   64.8050 N.am   34  GLY34      -0.1940
     68  CA        97.9440   82.9990   63.4550 C.3    34  GLY34       0.2014
     69  C         98.3730   84.4840   63.2980 C.2    34  GLY34       0.2639
     70  O         99.5210   84.8130   63.5670 O.2    34  GLY34      -0.2714
     71  N         97.4460   85.3350   62.8820 N.am   35  GLY35      -0.1954
     72  CA        97.7560   86.7590   62.5990 C.3    35  GLY35       0.1869
     73  C         98.3850   87.6160   63.7220 C.2    35  GLY35       0.2309
     74  O         99.0780   88.5800   63.4220 O.2    35  GLY35      -0.2863
     75  N         96.6560   89.3410   65.7020 N.3    37  SER37      -0.1202
     76  CA        95.7530   90.4950   65.7300 C.3    37  SER37       0.2020
     77  C         95.4140   90.7580   67.2000 C.2    37  SER37       0.2618
     78  O         95.2470   91.9030   67.6350 O.2    37  SER37      -0.2717
     79  CB        94.4690   90.1570   64.9630 C.3    37  SER37       0.2103
     80  OG        94.7270   89.1450   64.0040 O.3    37  SER37      -0.2182
     81  N         95.3050   89.6710   67.9560 N.am   38  VAL38      -0.1979
     82  CA        94.9990   89.7450   69.3670 C.3    38  VAL38       0.1595
     83  C         96.3000   89.8700   70.1560 C.2    38  VAL38       0.2287
     84  O         96.6030   90.9460   70.6490 O.2    38  VAL38      -0.2864
     85  CB        94.1700   88.5100   69.8050 C.3    38  VAL38       0.0276
     86  CG1       94.2150   88.3190   71.3140 C.3    38  VAL38       0.0022
     87  CG2       92.7290   88.6940   69.3420 C.3    38  VAL38       0.0022
     88  N         99.8240   80.7700   70.8280 N.3    49  ASN49      -0.1225
     89  CA       100.0100   79.4420   70.2520 C.3    49  ASN49       0.1785
     90  C         99.2980   79.2790   68.9230 C.2    49  ASN49       0.2597
     91  O         98.2130   79.8310   68.6770 O.2    49  ASN49      -0.2718
     92  CB        99.5220   78.3410   71.2170 C.3    49  ASN49       0.1169
     93  CG        99.6470   76.9250   70.6260 C.2    49  ASN49       0.2627
     94  OD1      100.7480   76.4320   70.3950 O.2    49  ASN49      -0.2716
     95  ND2       98.5120   76.2740   70.3830 N.am   49  ASN49      -0.0877
     96  N         99.9550   78.5500   68.0410 N.am   50  ASP50      -0.1960
     97  CA        99.3570   78.2190   66.7760 C.3    50  ASP50       0.1840
     98  C        100.0400   76.9330   66.3660 C.2    50  ASP50       0.2622
     99  O        101.2120   76.7250   66.6730 O.2    50  ASP50      -0.2715
    100  CB        99.5390   79.2990   65.7320 C.3    50  ASP50       0.1450
    101  CG        98.5600   79.1370   64.5820 C.2    50  ASP50       0.3671
    102  OD1       98.5430   78.0480   63.9580 O.co2  50  ASP50      -0.2456
    103  OD2       97.8040   80.0930   64.3150 O.co2  50  ASP50      -0.2456
    104  N         99.3070   76.0610   65.6900 N.am   51  ILE51      -0.1963
    105  CA        99.8560   74.7830   65.3200 C.3    51  ILE51       0.1727
    106  C        100.8890   74.8670   64.2230 C.2    51  ILE51       0.2616
    107  O        101.8140   74.0660   64.1990 O.2    51  ILE51      -0.2715
    108  CB        98.7310   73.8230   64.9310 C.3    51  ILE51       0.0290
    109  CG1       99.2180   72.3890   65.0600 C.3    51  ILE51       0.0022
    110  CG2       98.2490   74.1270   63.5430 C.3    51  ILE51       0.0023
    111  CD1       98.1050   71.4110   65.3060 C.3    51  ILE51       0.0001
    112  N        100.7460   75.8510   63.3370 N.am   52  GLN52      -0.1977
    113  CA       101.6810   76.0390   62.2220 C.3    52  GLN52       0.1601
    114  C        103.0850   76.5970   62.5660 C.2    52  GLN52       0.2287
    115  O        103.3490   77.8130   62.5040 O.2    52  GLN52      -0.2864
    116  CB       101.0290   76.9050   61.1460 C.3    52  GLN52       0.0394
    117  CG        99.7050   76.3730   60.7080 C.3    52  GLN52       0.0908
    118  CD        99.3200   76.8480   59.3300 C.2    52  GLN52       0.2608
    119  OE1       99.9270   76.4490   58.3200 O.2    52  GLN52      -0.2717
    120  NE2       98.3060   77.7130   59.2690 N.am   52  GLN52      -0.0878
    121  N        101.8860   74.3820   69.3360 N.3   155  LEU155     -0.1231
    122  CA       101.3440   73.0840   69.6950 C.3   155  LEU155      0.1693
    123  C         99.8690   72.9480   69.3530 C.2   155  LEU155      0.2592
    124  O         99.1690   73.9450   69.1580 O.2   155  LEU155     -0.2718
    125  CB       101.5010   72.8530   71.1950 C.3   155  LEU155      0.0284
    126  CG       102.8950   72.9990   71.7830 C.3   155  LEU155      0.0019
    127  CD1      102.8080   72.7840   73.2660 C.3   155  LEU155      0.0001
    128  CD2      103.8370   72.0090   71.1320 C.3   155  LEU155      0.0001
    129  N         99.4120   71.7020   69.2820 N.am  156  HIS156     -0.1962
    130  CA        98.0160   71.4090   69.0300 C.3   156  HIS156      0.1787
    131  C         97.3360   71.9770   70.2670 C.2   156  HIS156      0.2620
    132  O         97.7900   71.6980   71.3760 O.2   156  HIS156     -0.2715
    133  CB        97.8030   69.9030   68.9970 C.3   156  HIS156      0.0785
    134  CG        96.4180   69.5090   68.6050 C.ar  156  HIS156      0.0821
    135  ND1       95.2980   69.9730   69.2620 N.ar  156  HIS156     -0.2267
    136  CD2       95.9680   68.7290   67.5950 C.ar  156  HIS156      0.1154
    137  CE1       94.2190   69.4950   68.6710 C.ar  156  HIS156      0.1986
    138  NE2       94.5970   68.7390   67.6570 N.ar  156  HIS156     -0.2212
    139  N         96.2620   72.7530   70.1150 N.am  157  PHE157     -0.1974
    140  CA        95.6270   73.3340   71.2990 C.3   157  PHE157      0.1639
    141  C         95.5330   72.3280   72.4530 C.2   157  PHE157      0.2290
    142  O         95.7570   72.6840   73.6130 O.2   157  PHE157     -0.2864
    143  CB        94.2310   73.8800   70.9650 C.3   157  PHE157      0.0560
    144  CG        93.2160   72.8130   70.6660 C.ar  157  PHE157     -0.0200
    145  CD1       92.6390   72.0720   71.6900 C.ar  157  PHE157     -0.0042
    146  CD2       92.8660   72.5200   69.3580 C.ar  157  PHE157     -0.0042
    147  CE1       91.7400   71.0620   71.4190 C.ar  157  PHE157     -0.0003
    148  CE2       91.9630   71.5090   69.0730 C.ar  157  PHE157     -0.0003
    149  CZ        91.4000   70.7760   70.1110 C.ar  157  PHE157     -0.0000
    150  N         91.9220   82.5490   75.2450 N.3   169  TYR169     -0.1241
    151  CA        91.1540   83.0920   74.1350 C.3   169  TYR169      0.1605
    152  C         91.1860   82.1790   72.9100 C.2   169  TYR169      0.2264
    153  O         92.2120   82.0330   72.2340 O.2   169  TYR169     -0.2867
    154  CB        91.6360   84.4550   73.7150 C.3   169  TYR169      0.0534
    155  CG        90.8310   84.8960   72.5370 C.ar  169  TYR169     -0.0201
    156  CD1       89.4550   84.7140   72.5330 C.ar  169  TYR169     -0.0009
    157  CD2       91.4330   85.4540   71.4110 C.ar  169  TYR169     -0.0009
    158  CE1       88.6930   85.0690   71.4450 C.ar  169  TYR169      0.0417
    159  CE2       90.6740   85.8170   70.3060 C.ar  169  TYR169      0.0417
    160  CZ        89.2990   85.6200   70.3320 C.ar  169  TYR169      0.1957
    161  OH        88.5110   85.9740   69.2600 O.3   169  TYR169     -0.2866
    162  N         89.7800   81.1020   69.1770 N.3   171  ASP171     -0.1225
    163  CA        89.2750   81.5710   67.8880 C.3   171  ASP171      0.1790
    164  C         89.8450   80.6040   66.8870 C.2   171  ASP171      0.2440
    165  O         90.7170   80.9490   66.1100 O.2   171  ASP171     -0.2733
    166  CB        89.7830   82.9530   67.5320 C.3   171  ASP171      0.1423
    167  CG        89.5030   83.2910   66.0880 C.2   171  ASP171      0.3668
    168  OD1       88.4220   82.8910   65.6080 O.co2 171  ASP171     -0.2456
    169  OD2       90.3450   83.9480   65.4360 O.co2 171  ASP171     -0.2456
    170  N         89.3560   79.3670   66.8970 N.am  172  PRO172     -0.2718
    171  CA        89.8320   78.3330   65.9890 C.3   172  PRO172      0.1520
    172  C         89.1110   78.3620   64.6470 C.2   172  PRO172      0.2440
    173  O         88.2710   79.2170   64.3880 O.2   172  PRO172     -0.2731
    174  CB        89.5280   77.0750   66.7720 C.3   172  PRO172      0.0310
    175  CG        88.1730   77.3870   67.3120 C.3   172  PRO172      0.0237
    176  CD        88.2130   78.8690   67.6820 C.3   172  PRO172      0.0939
    177  N         89.4250   77.4160   63.7740 N.am  173  PRO173     -0.2716
    178  CA        88.7330   77.4390   62.5010 C.3   173  PRO173      0.1536
    179  C         87.2320   77.2720   62.6810 C.2   173  PRO173      0.2598
    180  O         86.7550   76.4800   63.5080 O.2   173  PRO173     -0.2715
    181  CB        89.3510   76.2750   61.7640 C.3   173  PRO173      0.0310
    182  CG        90.7270   76.2180   62.3250 C.3   173  PRO173      0.0237
    183  CD        90.4830   76.3990   63.7810 C.3   173  PRO173      0.0939
    184  N         86.4800   78.0410   61.9090 N.am  174  TYR174     -0.1974
    185  CA        85.0350   77.9730   61.9590 C.3   174  TYR174      0.1639
    186  C         84.5790   76.8090   61.0900 C.2   174  TYR174      0.2290
    187  O         84.7580   76.8430   59.8700 O.2   174  TYR174     -0.2864
    188  CB        84.4490   79.2730   61.4300 C.3   174  TYR174      0.0560
    189  CG        84.8100   80.4770   62.2570 C.ar  174  TYR174     -0.0198
    190  CD1       85.3960   80.3360   63.5150 C.ar  174  TYR174     -0.0009
    191  CD2       84.5020   81.7670   61.8090 C.ar  174  TYR174     -0.0009
    192  CE1       85.6600   81.4450   64.3030 C.ar  174  TYR174      0.0417
    193  CE2       84.7580   82.8790   62.5900 C.ar  174  TYR174      0.0417
    194  CZ        85.3350   82.7130   63.8350 C.ar  174  TYR174      0.1957
    195  OH        85.5750   83.8190   64.6120 O.3   174  TYR174     -0.2866
    196  N         93.4870   76.8800   56.5330 N.3   181  TYR181     -0.1241
    197  CA        93.7720   76.0900   57.7250 C.3   181  TYR181      0.1605
    198  C         92.6810   75.1780   58.2790 C.2   181  TYR181      0.2264
    199  O         92.9230   74.4740   59.2630 O.2   181  TYR181     -0.2867
    200  CB        94.3160   76.9760   58.8510 C.3   181  TYR181      0.0534
    201  CG        93.5030   78.1950   59.1460 C.ar  181  TYR181     -0.0201
    202  CD1       92.1820   78.0970   59.5600 C.ar  181  TYR181     -0.0009
    203  CD2       94.0620   79.4640   59.0150 C.ar  181  TYR181     -0.0009
    204  CE1       91.4390   79.2360   59.8330 C.ar  181  TYR181      0.0417
    205  CE2       93.3230   80.6080   59.2860 C.ar  181  TYR181      0.0417
    206  CZ        92.0170   80.4810   59.6900 C.ar  181  TYR181      0.1957
    207  OH        91.2840   81.6070   59.9340 O.3   181  TYR181     -0.2866
    208  N         93.2020   71.6100   59.2780 N.3   184  PHE184     -0.1227
    209  CA        93.6240   71.1460   60.5840 C.3   184  PHE184      0.1736
    210  C         92.3850   70.9170   61.4340 C.2   184  PHE184      0.2595
    211  O         92.4880   70.4950   62.5930 O.2   184  PHE184     -0.2718
    212  CB        94.4940   72.2110   61.2570 C.3   184  PHE184      0.0547
    213  CG        95.8110   72.4520   60.5740 C.ar  184  PHE184     -0.0202
    214  CD1       96.7760   71.4480   60.5140 C.ar  184  PHE184     -0.0042
    215  CD2       96.0990   73.6910   60.0080 C.ar  184  PHE184     -0.0042
    216  CE1       98.0000   71.6770   59.9040 C.ar  184  PHE184     -0.0003
    217  CE2       97.3220   73.9250   59.3960 C.ar  184  PHE184     -0.0003
    218  CZ        98.2720   72.9180   59.3440 C.ar  184  PHE184     -0.0000
    219  N         91.2170   71.1880   60.8540 N.am  185  TRP185     -0.1976
    220  CA        89.9620   71.0700   61.5890 C.3   185  TRP185      0.1640
    221  C         89.0210   69.9590   61.1370 C.2   185  TRP185      0.2290
    222  O         89.1000   69.4820   60.0040 O.2   185  TRP185     -0.2864
    223  CB        89.2100   72.3970   61.5200 C.3   185  TRP185      0.0576
    224  CG        88.5220   72.7710   62.7770 C.ar  185  TRP185      0.0006
    225  CD1       87.2630   73.2720   62.8980 C.ar  185  TRP185      0.0946
    226  CD2       89.0850   72.7840   64.0910 C.ar  185  TRP185      0.0152
    227  NE1       87.0020   73.6090   64.2050 N.ar  185  TRP185     -0.2442
    228  CE2       88.1060   73.3190   64.9600 C.ar  185  TRP185      0.0810
    229  CE3       90.3250   72.3990   64.6210 C.ar  185  TRP185      0.0012
    230  CZ2       88.3280   73.4820   66.3330 C.ar  185  TRP185      0.0191
    231  CZ3       90.5500   72.5590   65.9900 C.ar  185  TRP185      0.0001
    232  CH2       89.5510   73.0990   66.8290 C.ar  185  TRP185      0.0015
@<TRIPOS>BOND
     1   196   197    1
     2     1     2    1
     3   197   198    1
     4   197   200    1
     5     3     2    1
     6     3     4    2
     7     2     5    1
     8   198   199    2
     9   119   118    2
    10    13    14    1
    11   200   201    1
    12   203   201   ar
    13   203   205   ar
    14   201   202   ar
    15     7     9   ar
    16     7     6   ar
    17    24    22   am
    18     5     6    1
    19   120   118   am
    20   208   209    1
    21   205   206   ar
    22   118   117    1
    23   218   217   ar
    24   218   216   ar
    25   217   215   ar
    26     9    11   ar
    27     6     8   ar
    28   202   204   ar
    29   206   204   ar
    30   206   207    1
    31   187   186    2
    32   216   214   ar
    33   222   221    2
    34   215   213   ar
    35    14    15    1
    36    11    12    1
    37    11    10   ar
    38     8    10   ar
    39   214   213   ar
    40    22    21    1
    41    22    23    2
    42   213   212    1
    43   209   212    1
    44   209   210    1
    45   117   116    1
    46    17    15   am
    47    17    18    1
    48   219   210   am
    49   219   220    1
    50    21    18    1
    51    15    16    2
    52   186   185    1
    53   221   220    1
    54   116   113    1
    55   188   185    1
    56   188   189    1
    57   210   211    2
    58   223   220    1
    59   223   224    1
    60   181   182    1
    61   181   178    1
    62    18    19    1
    63   191   189   ar
    64   191   193   ar
    65   184   185    1
    66   184   179   am
    67    20    19    2
    68   113   114    1
    69   113   112    1
    70   189   190   ar
    71   182   183    1
    72    19    25   am
    73   178   179    1
    74   178   177    1
    75   115   114    2
    76   193   194   ar
    77    72    71    1
    78    72    73    1
    79   179   180    2
    80   224   225   ar
    81   224   226   ar
    82    71    69   am
    83   225   227   ar
    84    69    68    1
    85    69    70    2
    86   112   106   am
    87    74    73    2
    88    68    67    1
    89   190   192   ar
    90   110   108    1
    91    25    26    1
    92   177   183    1
    93   177   172   am
    94   194   192   ar
    95   194   195    1
    96   102   101   ar
    97    80    79    1
    98   226   229   ar
    99   226   228   ar
   100   107   106    2
   101   227   228   ar
   102   106   105    1
   103   103   101   ar
   104    26    27    1
   105    26    29    1
   106   173   172    2
   107    27    28    2
   108   101   100    1
   109    33    32    1
   110   229   231   ar
   111   172   171    1
   112    31    32    1
   113    31    30    1
   114    67    63   am
   115   108   109    1
   116   108   105    1
   117   228   230   ar
   118    79    76    1
   119   109   111    1
   120    64    63    2
   121   105   104    1
   122   169   167   ar
   123    30    29    1
   124   168   167   ar
   125    63    62    1
   126   104    98   am
   127    75    76    1
   128    76    77    1
   129   100    97    1
   130   171   174    1
   131   171   170    1
   132   231   232   ar
   133   167   166    1
   134   165   164    2
   135   230   232   ar
   136    98    99    2
   137    98    97    1
   138   174   175    1
   139    97    96    1
   140   164   170   am
   141   164   163    1
   142   170   176    1
   143    62    61    1
   144    62    65    1
   145    77    78    2
   146    77    81   am
   147    61    52   am
   148   175   176    1
   149    54    55    1
   150    54    51    1
   151    57    55   ar
   152    57    59   ar
   153   166   163    1
   154   136   138   ar
   155   136   134   ar
   156   138   137   ar
   157    52    53    2
   158    52    51    1
   159    66    65    1
   160   163   162    1
   161    81    82    1
   162    55    56   ar
   163    51    50    1
   164    96    90   am
   165    59    60   ar
   166   134   133    1
   167   134   135   ar
   168   137   135   ar
   169    91    90    2
   170    90    89    1
   171   133   130    1
   172   130   129    1
   173   130   131    1
   174   148   146   ar
   175   148   149   ar
   176    56    58   ar
   177   124   123    2
   178    60    58   ar
   179   161   160    1
   180   129   123   am
   181   121   122    1
   182    87    85    1
   183   123   122    1
   184   146   144   ar
   185    82    85    1
   186    82    83    1
   187    50    44   am
   188   122   125    1
   189    85    86    1
   190    45    44    2
   191    41    39   ar
   192   149   147   ar
   193   139   131   am
   194   139   140    1
   195    83    84    2
   196    89    88    1
   197    89    92    1
   198   131   132    2
   199    40    39   ar
   200   159   160   ar
   201   159   157   ar
   202   160   158   ar
   203    44    43    1
   204    95    93   am
   205    94    93    2
   206    39    38    1
   207    93    92    1
   208   144   143    1
   209   144   145   ar
   210   143   140    1
   211    37    36    2
   212   128   126    1
   213   125   126    1
   214   140   141    1
   215   157   155   ar
   216   147   145   ar
   217   158   156   ar
   218    38    35    1
   219   126   127    1
   220    43    46    1
   221    43    42    1
   222    36    42   am
   223    36    35    1
   224   153   152    2
   225    46    47    1
   226   141   142    2
   227    47    48    1
   228    47    49    1
   229   156   155   ar
   230   155   154    1
   231    35    34    1
   232   152   151    1
   233   154   151    1
   234   151   150    1
