@<TRIPOS>MOLECULE
tmp/1yfrB00.pdb
 147 139 0 0 0
SMALL
GASTEIGER

@<TRIPOS>ATOM
      1  N         90.5400  -22.5500    7.0570 N.3    69  ARG69      -0.1245
      2  CA        91.3200  -21.4110    7.5100 C.3    69  ARG69       0.1563
      3  C         91.5680  -21.5030    8.9960 C.2    69  ARG69       0.2260
      4  O         90.7870  -20.9880    9.7830 O.2    69  ARG69      -0.2867
      5  CB        90.5950  -20.1040    7.1690 C.3    69  ARG69       0.0307
      6  CG        90.5640  -19.7970    5.6950 C.3    69  ARG69       0.0489
      7  CD        89.8860  -18.4900    5.3620 C.3    69  ARG69       0.2205
      8  NE        90.5520  -17.3240    5.9390 N.pl3  69  ARG69      -0.0865
      9  CZ        90.1040  -16.0750    5.8310 C.cat  69  ARG69       0.5346
     10  NH1       88.9810  -15.8300    5.1550 N.pl3  69  ARG69       0.1354
     11  NH2       90.7630  -15.0730    6.4230 N.pl3  69  ARG69       0.1354
     12  N         91.4040  -18.0940   11.1750 N.3    76  ASP76      -0.1239
     13  CA        90.1570  -17.5710   11.7320 C.3    76  ASP76       0.1674
     14  C         89.5800  -18.4980   12.8160 C.2    76  ASP76       0.2266
     15  O         88.4330  -18.3490   13.2500 O.2    76  ASP76      -0.2867
     16  CB        89.1020  -17.3730   10.6440 C.3    76  ASP76       0.1410
     17  CG        89.4090  -16.2200    9.7190 C.2    76  ASP76       0.3668
     18  OD1       90.2720  -15.4050   10.0750 O.co2  76  ASP76      -0.2456
     19  OD2       88.7820  -16.1140    8.6380 O.co2  76  ASP76      -0.2456
     20  N         79.8700  -14.9680   10.0820 N.3    85  ARG85      -0.1231
     21  CA        80.5050  -15.0860    8.7830 C.3    85  ARG85       0.1694
     22  C         81.8020  -15.9130    8.8380 C.2    85  ARG85       0.2592
     23  O         82.1830  -16.5420    7.8490 O.2    85  ARG85      -0.2718
     24  CB        80.8090  -13.6840    8.2540 C.3    85  ARG85       0.0321
     25  CG        79.6010  -12.8410    8.0280 C.3    85  ARG85       0.0489
     26  CD        78.6740  -13.4740    6.9670 C.3    85  ARG85       0.2205
     27  NE        77.2820  -13.0510    7.1150 N.pl3  85  ARG85      -0.0865
     28  CZ        76.2890  -13.5080    6.3580 C.cat  85  ARG85       0.5346
     29  NH1       76.5340  -14.3940    5.4020 N.pl3  85  ARG85       0.1354
     30  NH2       75.0500  -13.0970    6.5640 N.pl3  85  ARG85       0.1354
     31  N         82.4830  -15.9130    9.9850 N.am   86  HIS86      -0.1962
     32  CA        83.7390  -16.6580   10.1310 C.3    86  HIS86       0.1787
     33  C         83.5380  -18.1610   10.3130 C.2    86  HIS86       0.2620
     34  O         82.9560  -18.5990   11.3090 O.2    86  HIS86      -0.2715
     35  CB        84.5400  -16.1090   11.3150 C.3    86  HIS86       0.0785
     36  CG        84.8760  -14.6550   11.1910 C.ar   86  HIS86       0.0821
     37  ND1       85.0310  -14.0370    9.9710 N.ar   86  HIS86      -0.2267
     38  CD2       85.1200  -13.7110   12.1280 C.ar   86  HIS86       0.1154
     39  CE1       85.3590  -12.7700   10.1600 C.ar   86  HIS86       0.1986
     40  NE2       85.4200  -12.5460   11.4590 N.ar   86  HIS86      -0.2212
     41  N         84.0450  -18.9380    9.3540 N.am   87  HIS87      -0.1973
     42  CA        83.9390  -20.3910    9.3710 C.3    87  HIS87       0.1656
     43  C         85.3260  -20.9740    9.4300 C.2    87  HIS87       0.2291
     44  O         86.2830  -20.3240    9.0350 O.2    87  HIS87      -0.2864
     45  CB        83.2770  -20.9090    8.1010 C.3    87  HIS87       0.0771
     46  CG        81.9150  -20.3570    7.8560 C.ar   87  HIS87       0.0820
     47  ND1       80.8100  -20.7300    8.5980 N.ar   87  HIS87      -0.2267
     48  CD2       81.4660  -19.5080    6.9100 C.ar   87  HIS87       0.1154
     49  CE1       79.7410  -20.1360    8.1070 C.ar   87  HIS87       0.1986
     50  NE2       80.1080  -19.3870    7.0800 N.ar   87  HIS87      -0.2212
     51  N         84.9070  -24.1430    4.8680 N.3    90  PHE90      -0.1241
     52  CA        83.9630  -23.4700    3.9910 C.3    90  PHE90       0.1605
     53  C         84.2550  -23.7940    2.5440 C.2    90  PHE90       0.2264
     54  O         85.3640  -24.2180    2.2320 O.2    90  PHE90      -0.2867
     55  CB        83.9730  -21.9420    4.2390 C.3    90  PHE90       0.0534
     56  CG        85.2510  -21.2420    3.8530 C.ar   90  PHE90      -0.0203
     57  CD1       85.3120  -20.4740    2.6910 C.ar   90  PHE90      -0.0042
     58  CD2       86.3850  -21.3440    4.6580 C.ar   90  PHE90      -0.0042
     59  CE1       86.4890  -19.8130    2.3290 C.ar   90  PHE90      -0.0003
     60  CE2       87.5650  -20.6960    4.3140 C.ar   90  PHE90      -0.0003
     61  CZ        87.6150  -19.9220    3.1330 C.ar   90  PHE90      -0.0000
     62  N         84.6190  -22.6300   -1.4470 N.3    92  MET92      -0.1245
     63  CA        84.9270  -21.4700   -2.2740 C.3    92  MET92       0.1570
     64  C         84.6330  -21.7270   -3.7420 C.2    92  MET92       0.2261
     65  O         84.9950  -22.7740   -4.2700 O.2    92  MET92      -0.2867
     66  CB        86.4010  -21.0780   -2.1060 C.3    92  MET92       0.0387
     67  CG        86.7960  -19.7780   -2.8180 C.3    92  MET92       0.0595
     68  SD        88.4380  -19.1790   -2.2980 S.3    92  MET92      -0.1393
     69  CE        88.0530  -18.4400   -0.7390 C.3    92  MET92       0.0692
     70  N         85.7050   -6.2800   -4.8510 N.3   174  GLU174     -0.1245
     71  CA        84.6950   -7.1040   -4.1690 C.3   174  GLU174      0.1567
     72  C         83.2950   -6.5360   -4.3400 C.2   174  GLU174      0.2260
     73  O         83.1340   -5.3370   -4.6050 O.2   174  GLU174     -0.2867
     74  CB        85.0060   -7.1920   -2.6730 C.3   174  GLU174      0.0388
     75  CG        86.4660   -7.5010   -2.3810 C.3   174  GLU174      0.1160
     76  CD        86.8030   -7.5010   -0.9090 C.2   174  GLU174      0.3649
     77  OE1       86.9140   -6.4230   -0.2970 O.co2 174  GLU174     -0.2457
     78  OE2       86.9620   -8.6010   -0.3680 O.co2 174  GLU174     -0.2457
     79  N         80.4290   -8.8220    2.2230 N.3   191  GLU191     -0.1231
     80  CA        81.4010   -9.1590    1.1830 C.3   191  GLU191      0.1699
     81  C         81.0370  -10.5470    0.6430 C.2   191  GLU191      0.2592
     82  O         81.1740  -11.5610    1.3590 O.2   191  GLU191     -0.2718
     83  CB        82.8160   -9.2130    1.7510 C.3   191  GLU191      0.0402
     84  CG        83.8610   -9.6980    0.7660 C.3   191  GLU191      0.1161
     85  CD        84.9930  -10.4200    1.4500 C.2   191  GLU191      0.3649
     86  OE1       85.9340  -10.7880    0.7260 O.co2 191  GLU191     -0.2457
     87  OE2       84.9550  -10.6330    2.6890 O.co2 191  GLU191     -0.2457
     88  N         80.5710  -10.6040   -0.6040 N.am  192  ILE192     -0.1980
     89  CA        80.2030  -11.8920   -1.1870 C.3   192  ILE192      0.1595
     90  C         81.1960  -12.3470   -2.2470 C.2   192  ILE192      0.2287
     91  O         81.6160  -13.5010   -2.2320 O.2   192  ILE192     -0.2864
     92  CB        78.7970  -11.8580   -1.8220 C.3   192  ILE192      0.0276
     93  CG1       78.8120  -11.0220   -3.1080 C.3   192  ILE192      0.0022
     94  CG2       77.8160  -11.2530   -0.8290 C.3   192  ILE192      0.0022
     95  CD1       77.6120  -11.2840   -4.0000 C.3   192  ILE192      0.0001
     96  N         84.8950  -11.6720   -4.5750 N.3   194  ASN194     -0.1240
     97  CA        86.2100  -11.0290   -4.5290 C.3   194  ASN194      0.1653
     98  C         86.9970  -11.3650   -5.7750 C.2   194  ASN194      0.2266
     99  O         87.3750  -12.5280   -5.9500 O.2   194  ASN194     -0.2867
    100  CB        86.9990  -11.5120   -3.3060 C.3   194  ASN194      0.1155
    101  CG        88.3680  -10.8840   -3.2080 C.2   194  ASN194      0.2627
    102  OD1       88.5180   -9.7930   -2.6860 O.2   194  ASN194     -0.2716
    103  ND2       89.3730  -11.5740   -3.7110 N.am  194  ASN194     -0.0877
    104  N         87.2350  -15.7530   -5.7580 N.3   219  GLY219     -0.1210
    105  CA        86.8970  -16.6750   -4.6950 C.3   219  GLY219      0.1956
    106  C         85.6310  -16.1830   -4.0440 C.2   219  GLY219      0.2612
    107  O         85.5820  -15.0210   -3.6160 O.2   219  GLY219     -0.2717
    108  N         84.6170  -17.0440   -3.9650 N.am  220  MET220     -0.1965
    109  CA        83.3540  -16.6660   -3.3380 C.3   220  MET220      0.1736
    110  C         82.8490  -17.7270   -2.3650 C.2   220  MET220      0.2617
    111  O         82.6610  -18.8820   -2.7480 O.2   220  MET220     -0.2715
    112  CB        82.2850  -16.4180   -4.4040 C.3   220  MET220      0.0427
    113  CG        80.8580  -16.3880   -3.8590 C.3   220  MET220      0.0599
    114  SD        79.6380  -16.3330   -5.1220 S.3   220  MET220     -0.1393
    115  CE        79.1430  -14.5540   -5.0360 C.3   220  MET220      0.0692
    116  N         82.6190  -17.3280   -1.1150 N.am  221  GLY221     -0.1955
    117  CA        82.1090  -18.2550   -0.1260 C.3   221  GLY221      0.1869
    118  C         80.6800  -18.6310   -0.5150 C.2   221  GLY221      0.2309
    119  O         79.8470  -17.7920   -0.8430 O.2   221  GLY221     -0.2863
    120  N         78.4980  -20.6430    1.5420 N.3   223  GLU223     -0.1231
    121  CA        77.6850  -20.5240    2.7390 C.3   223  GLU223      0.1699
    122  C         77.2380  -19.0800    2.9430 C.2   223  GLU223      0.2592
    123  O         76.1710  -18.8110    3.5590 O.2   223  GLU223     -0.2718
    124  CB        78.4890  -20.9730    3.9630 C.3   223  GLU223      0.0402
    125  CG        79.0610  -22.3770    3.8700 C.3   223  GLU223      0.1161
    126  CD        80.2190  -22.4800    2.8940 C.2   223  GLU223      0.3649
    127  OE1       81.0860  -21.5700    2.9340 O.co2 223  GLU223     -0.2457
    128  OE2       80.2690  -23.4710    2.1090 O.co2 223  GLU223     -0.2457
    129  N         78.0700  -18.1510    2.4650 N.am  224  ARG224     -0.1980
    130  CA        77.7660  -16.7300    2.6410 C.3   224  ARG224      0.1597
    131  C         76.7790  -16.1660    1.6210 C.2   224  ARG224      0.2287
    132  O         75.8280  -15.4490    1.9840 O.2   224  ARG224     -0.2864
    133  CB        79.0450  -15.9140    2.6100 C.3   224  ARG224      0.0334
    134  CG        78.8690  -14.4620    2.9430 C.3   224  ARG224      0.0492
    135  CD        80.2250  -13.7860    3.0110 C.3   224  ARG224      0.2205
    136  NE        80.8730  -13.9600    4.3090 N.pl3 224  ARG224     -0.0865
    137  CZ        82.1290  -13.6020    4.5800 C.cat 224  ARG224      0.5346
    138  NH1       82.8930  -13.0410    3.6500 N.pl3 224  ARG224      0.1354
    139  NH2       82.6330  -13.8280    5.7830 N.pl3 224  ARG224      0.1354
    140  N         75.0990  -17.0700    9.1120 N.3   235  ASN235     -0.1240
    141  CA        75.6570  -18.0400    8.1890 C.3   235  ASN235      0.1653
    142  C         75.4150  -19.4480    8.7340 C.2   235  ASN235      0.2266
    143  O         75.7140  -20.4530    8.0610 O.2   235  ASN235     -0.2867
    144  CB        77.1650  -17.8000    8.0330 C.3   235  ASN235      0.1155
    145  CG        77.6350  -17.9410    6.5880 C.2   235  ASN235      0.2627
    146  OD1       77.5120  -19.0070    5.9750 O.2   235  ASN235     -0.2716
    147  ND2       78.1610  -16.8560    6.0340 N.am  235  ASN235     -0.0877
@<TRIPOS>BOND
     1    99    98    2
     2    98    97    1
     3   104   105    1
     4   114   115    1
     5   114   113    1
     6    70    71    1
     7   105   106    1
     8    73    72    2
     9    96    97    1
    10    97   100    1
    11   112   113    1
    12   112   109    1
    13    72    71    1
    14    65    64    2
    15    71    74    1
    16   106   108   am
    17   106   107    2
    18    95    93    1
    19   108   109    1
    20    64    63    1
    21   103   101   am
    22   109   110    1
    23   100   101    1
    24   101   102    2
    25    93    92    1
    26    67    68    1
    27    67    66    1
    28   111   110    2
    29    74    75    1
    30    75    76    1
    31   110   116   am
    32    68    69    1
    33    63    66    1
    34    63    62    1
    35    90    91    2
    36    90    89    1
    37    92    89    1
    38    92    94    1
    39    89    88    1
    40   116   117    1
    41    76    78   ar
    42    76    77   ar
    43   119   118    2
    44    88    81   am
    45   118   117    1
    46    81    80    1
    47    81    82    2
    48    86    85   ar
    49    84    85    1
    50    84    83    1
    51    80    83    1
    52    80    79    1
    53    85    87   ar
    54   120   121    1
    55   131   132    2
    56   131   130    1
    57   128   126   ar
    58    54    53    2
    59    59    57   ar
    60    59    61   ar
    61   129   130    1
    62   129   122   am
    63    53    52    1
    64   133   130    1
    65   133   134    1
    66    57    56   ar
    67   121   122    1
    68   121   124    1
    69   126   127   ar
    70   126   125    1
    71   122   123    2
    72   134   135    1
    73   135   136    1
    74    61    60   ar
    75   138   137    1
    76    56    55    1
    77    56    58   ar
    78   125   124    1
    79    52    55    1
    80    52    51    1
    81   136   137    2
    82    60    58   ar
    83   137   139    1
    84    10     9    1
    85     7     6    1
    86     7     8    1
    87    29    28    1
    88     6     5    1
    89     9     8    2
    90     9    11    1
    91   146   145    2
    92   147   145   am
    93    28    30    1
    94    28    27    2
    95   145   144    1
    96    48    50   ar
    97    48    46   ar
    98    26    27    1
    99    26    25    1
   100     1     2    1
   101    50    49   ar
   102     5     2    1
   103     2     3    1
   104    23    22    2
   105    46    45    1
   106    46    47   ar
   107    25    24    1
   108   144   141    1
   109   143   142    2
   110    45    42    1
   111    49    47   ar
   112   141   142    1
   113   141   140    1
   114    24    21    1
   115    19    17   ar
   116    21    22    1
   117    21    20    1
   118    22    31   am
   119     3     4    2
   120    44    43    2
   121    41    42    1
   122    41    33   am
   123    42    43    1
   124    17    18   ar
   125    17    16    1
   126    37    39   ar
   127    37    36   ar
   128    31    32    1
   129    32    33    1
   130    32    35    1
   131    39    40   ar
   132    33    34    2
   133    16    13    1
   134    12    13    1
   135    36    35    1
   136    36    38   ar
   137    40    38   ar
   138    13    14    1
   139    14    15    2
