@<TRIPOS>MOLECULE
tmp/1yfwA01.pdb
 157 144 0 0 0
SMALL
GASTEIGER

@<TRIPOS>ATOM
      1  N          8.6950   29.1630   -1.1630 N.3    25  VAL25      -0.1245
      2  CA         8.6790   28.8390    0.2580 C.3    25  VAL25       0.1561
      3  C          7.7920   29.7300    1.1330 C.2    25  VAL25       0.2260
      4  O          7.1200   29.2260    2.0290 O.2    25  VAL25      -0.2867
      5  CB        10.1040   28.8400    0.8520 C.3    25  VAL25       0.0252
      6  CG1       10.0690   28.2310    2.2520 C.3    25  VAL25       0.0019
      7  CG2       11.0560   28.0600   -0.0480 C.3    25  VAL25       0.0019
      8  N          8.9650   31.9470    3.0120 N.3    27  ASN27      -0.1240
      9  CA         9.8760   32.0990    4.1470 C.3    27  ASN27       0.1653
     10  C         10.3100   33.5110    4.5460 C.2    27  ASN27       0.2266
     11  O         10.3940   34.4040    3.7160 O.2    27  ASN27      -0.2867
     12  CB        11.1410   31.2910    3.8490 C.3    27  ASN27       0.1155
     13  CG        11.2220   30.0390    4.6560 C.2    27  ASN27       0.2627
     14  OD1       10.2560   29.6610    5.3170 O.2    27  ASN27      -0.2716
     15  ND2       12.3710   29.3720    4.6130 N.am   27  ASN27      -0.0877
     16  N         11.3630   31.4000   12.0040 N.3    39  THR39      -0.1218
     17  CA        10.8120   31.9470   10.7820 C.3    39  THR39       0.1862
     18  C          9.3060   32.0590   10.8100 C.2    39  THR39       0.2287
     19  O          8.6170   31.4900   11.6600 O.2    39  THR39      -0.2866
     20  CB        11.1420   31.0610    9.5820 C.3    39  THR39       0.1770
     21  OG1       10.3860   29.8450    9.6830 O.3    39  THR39      -0.2211
     22  CG2       12.6230   30.7300    9.5420 C.3    39  THR39       0.0375
     23  N          6.1690   31.7670    7.9810 N.3    41  VAL41      -0.1245
     24  CA         5.9040   31.2980    6.6290 C.3    41  VAL41       0.1561
     25  C          4.4740   31.6410    6.2760 C.2    41  VAL41       0.2260
     26  O          3.5570   31.3570    7.0390 O.2    41  VAL41      -0.2867
     27  CB         6.0980   29.7680    6.5230 C.3    41  VAL41       0.0252
     28  CG1        6.2010   29.3480    5.0530 C.3    41  VAL41       0.0019
     29  CG2        7.3330   29.3530    7.2900 C.3    41  VAL41       0.0019
     30  N          1.9600   29.2870   -0.9720 N.3    45  ASN45      -0.1240
     31  CA         3.3030   28.7970   -1.2680 C.3    45  ASN45       0.1653
     32  C          3.2390   27.8070   -2.4270 C.2    45  ASN45       0.2266
     33  O          2.1770   27.5970   -3.0090 O.2    45  ASN45      -0.2867
     34  CB         3.9190   28.1430   -0.0250 C.3    45  ASN45       0.1155
     35  CG         3.2980   26.7970    0.3030 C.2    45  ASN45       0.2627
     36  OD1        2.1550   26.5120   -0.0710 O.2    45  ASN45      -0.2716
     37  ND2        4.0450   25.9650    1.0260 N.am   45  ASN45      -0.0877
     38  N          5.0120   24.0800   -3.0000 N.3    47  ARG47      -0.1245
     39  CA         5.8910   22.9790   -2.6200 C.3    47  ARG47       0.1563
     40  C          5.3640   21.6380   -3.1360 C.2    47  ARG47       0.2260
     41  O          4.1980   21.3000   -2.9280 O.2    47  ARG47      -0.2867
     42  CB         6.0000   22.9020   -1.0910 C.3    47  ARG47       0.0307
     43  CG         6.3940   24.2080   -0.3820 C.3    47  ARG47       0.0489
     44  CD         7.8540   24.5740   -0.6100 C.3    47  ARG47       0.2205
     45  NE         8.7770   23.5790   -0.0660 N.pl3  47  ARG47      -0.0865
     46  CZ         9.1590   23.5120    1.2080 C.cat  47  ARG47       0.5346
     47  NH1        8.6970   24.3850    2.0980 N.pl3  47  ARG47       0.1354
     48  NH2       10.0240   22.5800    1.5870 N.pl3  47  ARG47       0.1354
     49  N         10.3270   17.3530    2.6930 N.3    51  HIS51      -0.1241
     50  CA        11.5320   17.6890    3.4270 C.3    51  HIS51       0.1621
     51  C         11.8510   16.6060    4.4370 C.2    51  HIS51       0.2264
     52  O         10.9640   16.0900    5.1190 O.2    51  HIS51      -0.2867
     53  CB        11.3610   19.0290    4.1570 C.3    51  HIS51       0.0745
     54  CG        12.6040   19.5110    4.8490 C.ar   51  HIS51       0.0817
     55  ND1       12.5800   20.4610    5.8490 N.ar   51  HIS51      -0.2268
     56  CD2       13.9100   19.1950    4.6700 C.ar   51  HIS51       0.1154
     57  CE1       13.8110   20.7080    6.2590 C.ar   51  HIS51       0.1986
     58  NE2       14.6390   19.9530    5.5580 N.ar   51  HIS51      -0.2212
     59  N         11.0750   20.0700   14.1640 N.3    57  GLU57      -0.1245
     60  CA        10.5330   21.3220   13.6720 C.3    57  GLU57       0.1567
     61  C          9.2990   21.6440   14.5110 C.2    57  GLU57       0.2260
     62  O          8.4530   20.7830   14.7240 O.2    57  GLU57      -0.2867
     63  CB        10.1360   21.2110   12.1950 C.3    57  GLU57       0.0388
     64  CG        11.2890   20.8810   11.2480 C.3    57  GLU57       0.1160
     65  CD        10.9630   21.1510    9.7890 C.2    57  GLU57       0.3649
     66  OE1       11.8670   20.9780    8.9480 O.co2  57  GLU57      -0.2457
     67  OE2        9.8150   21.5370    9.4690 O.co2  57  GLU57      -0.2457
     68  N          5.9300   24.0580   14.9980 N.3    59  PHE59      -0.1241
     69  CA         5.0150   24.8680   14.2220 C.3    59  PHE59       0.1605
     70  C          3.9580   25.5130   15.1030 C.2    59  PHE59       0.2264
     71  O          3.5370   24.9560   16.1100 O.2    59  PHE59      -0.2867
     72  CB         4.2760   24.0080   13.1930 C.3    59  PHE59       0.0534
     73  CG         5.1550   23.3720   12.1620 C.ar   59  PHE59      -0.0203
     74  CD1        5.2530   23.9210   10.8820 C.ar   59  PHE59      -0.0042
     75  CD2        5.8240   22.1820   12.4390 C.ar   59  PHE59      -0.0042
     76  CE1        6.0020   23.2840    9.8860 C.ar   59  PHE59      -0.0003
     77  CE2        6.5690   21.5370   11.4630 C.ar   59  PHE59      -0.0003
     78  CZ         6.6580   22.0860   10.1800 C.ar   59  PHE59      -0.0000
     79  N          7.7830   15.6060    5.0170 N.3    95  HIS95      -0.1241
     80  CA         6.6630   16.5350    5.0190 C.3    95  HIS95       0.1621
     81  C          6.7550   17.5590    3.9100 C.2    95  HIS95       0.2264
     82  O          7.8430   18.0420    3.5820 O.2    95  HIS95      -0.2867
     83  CB         6.6010   17.2620    6.3670 C.3    95  HIS95       0.0745
     84  CG         7.8820   17.9400    6.7330 C.ar   95  HIS95       0.0817
     85  ND1        8.9780   17.2510    7.2010 N.ar   95  HIS95      -0.2268
     86  CD2        8.2640   19.2370    6.6380 C.ar   95  HIS95       0.1154
     87  CE1        9.9830   18.0920    7.3770 C.ar   95  HIS95       0.1986
     88  NE2        9.5760   19.3020    7.0410 N.ar   95  HIS95      -0.2212
     89  N          4.9090   21.0880    3.1600 N.3    97  PRO97      -0.2116
     90  CA         4.0270   22.1730    3.6100 C.3    97  PRO97       0.1372
     91  C          3.1530   22.7870    2.5360 C.2    97  PRO97       0.2244
     92  O          3.6490   23.2960    1.5450 O.2    97  PRO97      -0.2868
     93  CB         5.0020   23.1920    4.2000 C.3    97  PRO97       0.0268
     94  CG         6.1970   22.3350    4.6000 C.3    97  PRO97       0.0207
     95  CD         6.3190   21.4270    3.4130 C.3    97  PRO97       0.0892
     96  N          0.5090   25.6820    1.9860 N.3    99  ARG99      -0.1245
     97  CA        -0.0250   26.8910    2.5850 C.3    99  ARG99       0.1563
     98  C         -0.6860   27.6760    1.4720 C.2    99  ARG99       0.2260
     99  O         -0.1090   28.6050    0.9200 O.2    99  ARG99      -0.2867
    100  CB         1.1200   27.6780    3.2140 C.3    99  ARG99       0.0307
    101  CG         1.9250   26.8320    4.2100 C.3    99  ARG99       0.0489
    102  CD         3.1400   27.5690    4.7470 C.3    99  ARG99       0.2205
    103  NE         3.7780   26.8150    5.8190 N.pl3  99  ARG99      -0.0865
    104  CZ         3.2260   26.5980    7.0060 C.cat  99  ARG99       0.5346
    105  NH1        2.0200   27.0880    7.2820 N.pl3  99  ARG99       0.1354
    106  NH2        3.8710   25.8750    7.9100 N.pl3  99  ARG99       0.1354
    107  N          7.5560   28.9880   12.4940 N.3   108  VAL108     -0.1245
    108  CA         8.2560   27.7190   12.3450 C.3   108  VAL108      0.1561
    109  C          9.6340   27.8810   12.9600 C.2   108  VAL108      0.2260
    110  O         10.3980   28.7740   12.5770 O.2   108  VAL108     -0.2867
    111  CB         8.4080   27.2960   10.8560 C.3   108  VAL108      0.0252
    112  CG1        9.2520   26.0280   10.7690 C.3   108  VAL108      0.0019
    113  CG2        7.0260   27.0450   10.2220 C.3   108  VAL108      0.0019
    114  N         13.2530   25.9360   13.9700 N.3   110  GLU110     -0.1245
    115  CA        14.1250   24.8050   13.6850 C.3   110  GLU110      0.1567
    116  C         15.5010   25.0990   14.2870 C.2   110  GLU110      0.2260
    117  O         15.7180   26.1700   14.8540 O.2   110  GLU110     -0.2867
    118  CB        14.2560   24.6010   12.1660 C.3   110  GLU110      0.0388
    119  CG        12.9270   24.4930   11.4430 C.3   110  GLU110      0.1160
    120  CD        13.0490   24.0340    9.9870 C.2   110  GLU110      0.3649
    121  OE1       14.1780   23.7840    9.5060 O.co2 110  GLU110     -0.2457
    122  OE2       11.9970   23.9190    9.3170 O.co2 110  GLU110     -0.2457
    123  N         15.7980   16.4630    0.5380 N.3   121  PHE121     -0.1241
    124  CA        14.6310   16.9990   -0.1490 C.3   121  PHE121      0.1605
    125  C         14.2560   15.9460   -1.1630 C.2   121  PHE121      0.2264
    126  O         15.0690   15.5730   -2.0030 O.2   121  PHE121     -0.2867
    127  CB        14.9730   18.3280   -0.8020 C.3   121  PHE121      0.0534
    128  CG        15.1310   19.4360    0.1940 C.ar  121  PHE121     -0.0203
    129  CD1       14.0080   20.0350    0.7620 C.ar  121  PHE121     -0.0042
    130  CD2       16.3950   19.8200    0.6350 C.ar  121  PHE121     -0.0042
    131  CE1       14.1410   21.0020    1.7600 C.ar  121  PHE121     -0.0003
    132  CE2       16.5390   20.7810    1.6290 C.ar  121  PHE121     -0.0003
    133  CZ        15.4110   21.3740    2.1940 C.ar  121  PHE121     -0.0000
    134  N         22.4760   22.3530    4.7990 N.3   139  LEU139     -0.1245
    135  CA        21.6630   23.5620    4.7830 C.3   139  LEU139      0.1561
    136  C         22.2180   24.7010    5.6290 C.2   139  LEU139      0.2260
    137  O         22.4590   24.5370    6.8230 O.2   139  LEU139     -0.2867
    138  CB        20.2530   23.2110    5.2570 C.3   139  LEU139      0.0270
    139  CG        19.0470   23.8900    4.6090 C.3   139  LEU139      0.0019
    140  CD1       19.1050   23.7330    3.0990 C.3   139  LEU139      0.0001
    141  CD2       17.7780   23.2560    5.1620 C.3   139  LEU139      0.0001
    142  N         17.4910   28.1250    5.3770 N.3   142  ILE142     -0.1245
    143  CA        16.2230   27.5520    4.9450 C.3   142  ILE142      0.1561
    144  C         15.4680   28.5760    4.1110 C.2   142  ILE142      0.2260
    145  O         14.4310   28.2680    3.5220 O.2   142  ILE142     -0.2867
    146  CB        15.3230   27.0960    6.1410 C.3   142  ILE142      0.0252
    147  CG1       14.9440   28.2850    7.0230 C.3   142  ILE142      0.0019
    148  CG2       16.0400   26.0320    6.9590 C.3   142  ILE142      0.0019
    149  CD1       14.0220   27.9050    8.1760 C.3   142  ILE142      0.0001
    150  N         16.6300   26.8270   -0.5100 N.3   146  LEU146     -0.1245
    151  CA        15.5730   25.9890   -1.0690 C.3   146  LEU146      0.1561
    152  C         15.1960   26.1200   -2.5490 C.2   146  LEU146      0.2260
    153  O         15.2740   25.1380   -3.2920 O.2   146  LEU146     -0.2867
    154  CB        14.3130   26.1070   -0.1980 C.3   146  LEU146      0.0270
    155  CG        14.2670   25.1770    1.0260 C.3   146  LEU146      0.0019
    156  CD1       15.5490   25.2910    1.8350 C.3   146  LEU146      0.0001
    157  CD2       13.0530   25.5180    1.8820 C.3   146  LEU146      0.0001
@<TRIPOS>BOND
     1   153   152    2
     2    40    41    2
     3    40    39    1
     4    33    32    2
     5    38    39    1
     6    39    42    1
     7   152   151    1
     8    32    31    1
     9   126   125    2
    10    31    30    1
    11    31    34    1
    12   125   124    1
    13     1     2    1
    14    42    43    1
    15   151   150    1
    16   151   154    1
    17   127   124    1
    18   127   128    1
    19    44    43    1
    20    44    45    1
    21   154   155    1
    22   124   123    1
    23    36    35    2
    24    45    46    2
    25     7     5    1
    26    34    35    1
    27   128   130   ar
    28   128   129   ar
    29     2     5    1
    30     2     3    1
    31    35    37   am
    32   130   132   ar
    33   129   131   ar
    34     5     6    1
    35    99    98    2
    36   155   156    1
    37   155   157    1
    38     3     4    2
    39    46    48    1
    40    46    47    1
    41    98    97    1
    42    92    91    2
    43   132   133   ar
    44   131   133   ar
    45    96    97    1
    46    91    90    1
    47    97   100    1
    48    49    50    1
    49     8     9    1
    50   140   139    1
    51    89    95    1
    52    89    90    1
    53   100   101    1
    54    95    94    1
    55    50    53    1
    56    50    51    1
    57   145   144    2
    58    82    81    2
    59    90    93    1
    60    11    10    2
    61    12     9    1
    62    12    13    1
    63    81    80    1
    64   144   143    1
    65     9    10    1
    66    53    54    1
    67    93    94    1
    68   101   102    1
    69    51    52    2
    70   139   141    1
    71   139   138    1
    72    15    13   am
    73    13    14    2
    74    56    54   ar
    75    56    58   ar
    76   102   103    1
    77   135   134    1
    78   135   138    1
    79   135   136    1
    80    54    55   ar
    81   143   142    1
    82   143   146    1
    83    79    80    1
    84    80    83    1
    85    28    27    1
    86    58    57   ar
    87   136   137    2
    88   103   104    2
    89    55    57   ar
    90   146   148    1
    91   146   147    1
    92    25    24    1
    93    25    26    2
    94    83    84    1
    95    27    24    1
    96    27    29    1
    97    24    23    1
    98    86    84   ar
    99    86    88   ar
   100    84    85   ar
   101   104   105    1
   102   104   106    1
   103   147   149    1
   104    88    87   ar
   105    85    87   ar
   106    66    65   ar
   107   122   120   ar
   108    67    65   ar
   109   121   120   ar
   110    22    20    1
   111    20    21    1
   112    20    17    1
   113    65    64    1
   114    76    78   ar
   115    76    74   ar
   116   120   119    1
   117    78    77   ar
   118   113   111    1
   119   112   111    1
   120    17    18    1
   121    17    16    1
   122    18    19    2
   123   111   108    1
   124    74    73   ar
   125    64    63    1
   126   119   118    1
   127    77    75   ar
   128    73    75   ar
   129    73    72    1
   130   118   115    1
   131    63    60    1
   132   108   107    1
   133   108   109    1
   134   110   109    2
   135    72    69    1
   136    60    59    1
   137    60    61    1
   138   115   114    1
   139   115   116    1
   140    69    68    1
   141    69    70    1
   142   116   117    2
   143    61    62    2
   144    70    71    2
