@<TRIPOS>MOLECULE
tmp/1yfzA00.pdb
 115 108 0 0 0
SMALL
GASTEIGER

@<TRIPOS>ATOM
      1  N         34.2370   35.8150   63.5470 N.3    41  VAL41      -0.1231
      2  CA        35.0860   34.7540   64.0720 C.3    41  VAL41       0.1692
      3  C         35.8770   35.2950   65.2570 C.2    41  VAL41       0.2592
      4  O         36.5800   36.2950   65.1340 O.2    41  VAL41      -0.2718
      5  CB        36.0710   34.2440   62.9870 C.3    41  VAL41       0.0266
      6  CG1       36.8340   33.0270   63.4900 C.3    41  VAL41       0.0020
      7  CG2       35.3100   33.9030   61.7310 C.3    41  VAL41       0.0020
      8  N         35.7460   34.6380   66.4030 N.am   42  LEU42      -0.1966
      9  CA        36.4520   35.0380   67.6190 C.3    42  LEU42       0.1728
     10  C         37.9610   34.8170   67.4260 C.2    42  LEU42       0.2616
     11  O         38.3610   33.9800   66.6250 O.2    42  LEU42      -0.2715
     12  CB        35.9240   34.2130   68.8010 C.3    42  LEU42       0.0311
     13  CG        34.4160   34.3860   69.0610 C.3    42  LEU42       0.0022
     14  CD1       33.8870   33.2550   69.9220 C.3    42  LEU42       0.0001
     15  CD2       34.1610   35.7350   69.7160 C.3    42  LEU42       0.0001
     16  N         38.8020   35.5640   68.1390 N.am   43  LYS43      -0.1963
     17  CA        38.3820   36.5830   69.0980 C.3    43  LYS43       0.1728
     18  C         38.4740   37.9990   68.5300 C.2    43  LYS43       0.2616
     19  O         37.7400   38.8940   68.9520 O.2    43  LYS43      -0.2715
     20  CB        39.2550   36.5130   70.3550 C.3    43  LYS43       0.0311
     21  CG        39.1600   35.2180   71.1350 C.3    43  LYS43       0.0038
     22  CD        39.8180   35.3660   72.4960 C.3    43  LYS43       0.0206
     23  CE        41.3340   35.3290   72.3980 C.3    43  LYS43       0.1093
     24  NZ        41.8540   33.9430   72.5470 N.3    43  LYS43      -0.1314
     25  N         39.3760   38.1880   67.5730 N.am   44  GLY44      -0.1955
     26  CA        39.6030   39.4930   66.9780 C.3    44  GLY44       0.1869
     27  C         38.4260   40.2970   66.4660 C.2    44  GLY44       0.2309
     28  O         38.4810   41.5270   66.4570 O.2    44  GLY44      -0.2863
     29  N         37.7020   40.9750   60.9760 N.3   100  ASP100     -0.1225
     30  CA        38.5880   41.9950   61.5150 C.3   100  ASP100      0.1805
     31  C         39.6320   42.3100   60.4460 C.2   100  ASP100      0.2597
     32  O         40.0550   43.4530   60.2870 O.2   100  ASP100     -0.2718
     33  CB        39.2540   41.5060   62.8100 C.3   100  ASP100      0.1424
     34  CG        39.8860   40.1300   62.6770 C.2   100  ASP100      0.3668
     35  OD1       39.6360   39.4320   61.6700 O.co2 100  ASP100     -0.2456
     36  OD2       40.6290   39.7400   63.6010 O.co2 100  ASP100     -0.2456
     37  N         40.0210   41.2930   59.6890 N.am  101  ILE101     -0.1980
     38  CA        41.0030   41.4860   58.6380 C.3   101  ILE101      0.1595
     39  C         40.9860   40.3410   57.6350 C.2   101  ILE101      0.2287
     40  O         40.8360   39.1760   58.0030 O.2   101  ILE101     -0.2864
     41  CB        42.4370   41.6200   59.2390 C.3   101  ILE101      0.0276
     42  CG1       43.4420   41.9850   58.1470 C.3   101  ILE101      0.0022
     43  CG2       42.8490   40.3160   59.9170 C.3   101  ILE101      0.0022
     44  CD1       44.8150   42.3520   58.7000 C.3   101  ILE101      0.0001
     45  N         43.2390   38.5380   54.8680 N.3   103  ASP103     -0.1239
     46  CA        44.6170   38.4190   54.4320 C.3   103  ASP103      0.1674
     47  C         44.6380   37.5750   53.1650 C.2   103  ASP103      0.2266
     48  O         44.4460   38.0920   52.0610 O.2   103  ASP103     -0.2867
     49  CB        45.4440   37.7710   55.5450 C.3   103  ASP103      0.1410
     50  CG        46.9240   38.0660   55.4160 C.2   103  ASP103      0.3668
     51  OD1       47.2630   39.0980   54.8000 O.co2 103  ASP103     -0.2456
     52  OD2       47.7480   37.2870   55.9390 O.co2 103  ASP103     -0.2456
     53  N         44.2060   43.3140   53.4320 N.3   131  LYS131     -0.1245
     54  CA        45.5530   43.3390   52.8680 C.3   131  LYS131      0.1561
     55  C         45.4700   42.7170   51.4780 C.2   131  LYS131      0.2260
     56  O         45.7380   41.5300   51.3110 O.2   131  LYS131     -0.2867
     57  CB        46.5190   42.5060   53.7050 C.3   131  LYS131      0.0271
     58  CG        46.8960   43.0810   55.0420 C.3   131  LYS131      0.0035
     59  CD        47.8610   42.1330   55.7240 C.3   131  LYS131      0.0206
     60  CE        48.2360   42.6040   57.1070 C.3   131  LYS131      0.1093
     61  NZ        49.0480   41.5750   57.8060 N.3   131  LYS131     -0.1314
     62  N         52.4910   43.3110   59.7100 N.3   152  PHE152     -0.1227
     63  CA        51.7410   42.6820   60.7860 C.3   152  PHE152      0.1736
     64  C         51.2440   43.8090   61.6830 C.2   152  PHE152      0.2595
     65  O         52.0410   44.5590   62.2650 O.2   152  PHE152     -0.2718
     66  CB        52.6230   41.7310   61.5960 C.3   152  PHE152      0.0547
     67  CG        51.8540   40.8830   62.5690 C.ar  152  PHE152     -0.0202
     68  CD1       51.1400   39.7660   62.1290 C.ar  152  PHE152     -0.0042
     69  CD2       51.8150   41.2130   63.9190 C.ar  152  PHE152     -0.0042
     70  CE1       50.3970   38.9930   63.0220 C.ar  152  PHE152     -0.0003
     71  CE2       51.0740   40.4470   64.8200 C.ar  152  PHE152     -0.0003
     72  CZ        50.3640   39.3340   64.3680 C.ar  152  PHE152     -0.0000
     73  N         49.9260   43.9280   61.7890 N.am  153  VAL153     -0.1980
     74  CA        49.3290   44.9770   62.5930 C.3   153  VAL153      0.1595
     75  C         48.6300   44.4540   63.8350 C.2   153  VAL153      0.2287
     76  O         48.2860   43.2750   63.9280 O.2   153  VAL153     -0.2864
     77  CB        48.3180   45.7790   61.7670 C.3   153  VAL153      0.0276
     78  CG1       48.9920   46.3440   60.5370 C.3   153  VAL153      0.0022
     79  CG2       47.1480   44.8850   61.3730 C.3   153  VAL153      0.0022
     80  N         42.8630   43.0670   66.7480 N.3   158  LEU158     -0.1231
     81  CA        44.0260   42.3110   66.2920 C.3   158  LEU158      0.1693
     82  C         45.0870   42.2370   67.3880 C.2   158  LEU158      0.2592
     83  O         45.4300   43.2430   68.0200 O.2   158  LEU158     -0.2718
     84  CB        44.6370   42.9270   65.0280 C.3   158  LEU158      0.0284
     85  CG        43.8460   42.9150   63.7140 C.3   158  LEU158      0.0019
     86  CD1       43.2430   41.5380   63.4780 C.3   158  LEU158      0.0001
     87  CD2       42.7560   43.9570   63.7680 C.3   158  LEU158      0.0001
     88  N         45.6150   41.0400   67.6030 N.am  159  ASP159     -0.1974
     89  CA        46.6150   40.8360   68.6360 C.3   159  ASP159      0.1709
     90  C         47.9040   40.2580   68.1000 C.2   159  ASP159      0.2293
     91  O         48.0530   39.9920   66.9120 O.2   159  ASP159     -0.2864
     92  CB        46.1020   39.8500   69.6770 C.3   159  ASP159      0.1436
     93  CG        46.1330   38.4180   69.1680 C.2   159  ASP159      0.3671
     94  OD1       45.4720   38.1470   68.1480 O.co2 159  ASP159     -0.2456
     95  OD2       46.8220   37.5660   69.7700 O.co2 159  ASP159     -0.2456
     96  N         48.2200   37.2290   71.9120 N.3   162  GLU162     -0.1245
     97  CA        47.0810   37.6230   72.7470 C.3   162  GLU162      0.1567
     98  C         47.0820   39.0480   73.3080 C.2   162  GLU162      0.2260
     99  O         46.1890   39.4060   74.0760 O.2   162  GLU162     -0.2867
    100  CB        46.9150   36.6450   73.9190 C.3   162  GLU162      0.0388
    101  CG        46.6300   35.2010   73.5270 C.3   162  GLU162      0.1160
    102  CD        45.4450   35.0560   72.5750 C.2   162  GLU162      0.3649
    103  OE1       44.3870   35.6880   72.8010 O.co2 162  GLU162     -0.2457
    104  OE2       45.5760   34.2910   71.5990 O.co2 162  GLU162     -0.2457
    105  N         45.0240   43.8600   71.6710 N.3   165  ARG165     -0.1245
    106  CA        43.6690   43.8990   71.1100 C.3   165  ARG165      0.1563
    107  C         42.9140   45.1380   71.5760 C.2   165  ARG165      0.2260
    108  O         42.0450   45.6450   70.8750 O.2   165  ARG165     -0.2867
    109  CB        42.8560   42.6620   71.5260 C.3   165  ARG165      0.0307
    110  CG        43.3630   41.3100   71.0190 C.3   165  ARG165      0.0489
    111  CD        42.3880   40.2020   71.4470 C.3   165  ARG165      0.2205
    112  NE        42.9450   38.8570   71.3380 N.pl3 165  ARG165     -0.0865
    113  CZ        43.0870   38.1820   70.2020 C.cat 165  ARG165      0.5346
    114  NH1       42.7070   38.7130   69.0430 N.pl3 165  ARG165      0.1354
    115  NH2       43.6270   36.9690   70.2270 N.pl3 165  ARG165      0.1354
@<TRIPOS>BOND
     1    56    55    2
     2    55    54    1
     3    48    47    2
     4    54    53    1
     5    54    57    1
     6    47    46    1
     7    57    58    1
     8    46    45    1
     9    46    49    1
    10    51    50   ar
    11    58    59    1
    12    50    49    1
    13    50    52   ar
    14    59    60    1
    15    60    61    1
    16    39    40    2
    17    39    38    1
    18    42    44    1
    19    42    41    1
    20    38    41    1
    21    38    37    1
    22    41    43    1
    23    37    31   am
    24    62    63    1
    25    32    31    2
    26    31    30    1
    27    78    77    1
    28    63    66    1
    29    63    64    1
    30    29    30    1
    31    79    77    1
    32    30    33    1
    33    66    67    1
    34    35    34   ar
    35    64    73   am
    36    64    65    2
    37     7     5    1
    38    77    74    1
    39    73    74    1
    40    68    67   ar
    41    68    70   ar
    42    67    69   ar
    43    74    75    1
    44    34    33    1
    45    34    36   ar
    46     5     6    1
    47     5     2    1
    48    70    72   ar
    49    86    85    1
    50     1     2    1
    51    85    87    1
    52    85    84    1
    53    75    76    2
    54    69    71   ar
    55     2     3    1
    56    72    71   ar
    57    84    81    1
    58     4     3    2
    59     3     8   am
    60    81    80    1
    61    81    82    1
    62     8     9    1
    63    28    27    2
    64    27    26    1
    65    11    10    2
    66    91    90    2
    67    26    25    1
    68    82    88   am
    69    82    83    2
    70    10     9    1
    71    10    16   am
    72    25    18   am
    73    88    89    1
    74     9    12    1
    75    90    89    1
    76    16    17    1
    77    94    93   ar
    78    18    19    2
    79    18    17    1
    80    89    92    1
    81    12    13    1
    82   114   113    1
    83    13    15    1
    84    13    14    1
    85    17    20    1
    86    93    92    1
    87    93    95   ar
    88   113   115    1
    89   113   112    2
    90    20    21    1
    91   108   107    2
    92   110   111    1
    93   110   109    1
    94   106   109    1
    95   106   107    1
    96   106   105    1
    97    21    22    1
    98   112   111    1
    99   104   102   ar
   100    96    97    1
   101    23    22    1
   102    23    24    1
   103   102   103   ar
   104   102   101    1
   105    97    98    1
   106    97   100    1
   107    98    99    2
   108   101   100    1
