@<TRIPOS>MOLECULE
tmp/1yg6A00.pdb
 106 101 0 0 0
SMALL
GASTEIGER

@<TRIPOS>ATOM
      1  N         57.1070   79.3040   38.1970 N.3    70  ILE70      -0.1245
      2  CA        57.7580   80.6110   38.2420 C.3    70  ILE70       0.1561
      3  C         58.9240   80.7330   39.2250 C.2    70  ILE70       0.2260
      4  O         59.9900   81.2050   38.8370 O.2    70  ILE70      -0.2867
      5  CB        56.7190   81.7310   38.4810 C.3    70  ILE70       0.0252
      6  CG1       55.8020   81.8140   37.2530 C.3    70  ILE70       0.0019
      7  CG2       57.4210   83.1040   38.6960 C.3    70  ILE70       0.0019
      8  CD1       54.8790   83.0250   37.2320 C.3    70  ILE70       0.0001
      9  N         56.1260   80.8010   27.6930 N.3    97  SER97      -0.1202
     10  CA        55.8990   81.2820   29.0570 C.3    97  SER97       0.2020
     11  C         57.2090   81.4690   29.8140 C.2    97  SER97       0.2618
     12  O         58.0140   82.2910   29.3850 O.2    97  SER97      -0.2717
     13  CB        54.9390   80.3290   29.7710 C.3    97  SER97       0.2103
     14  OG        53.7450   80.2300   28.9960 O.3    97  SER97      -0.2182
     15  N         57.4550   80.7420   30.9100 N.am   98  MET98      -0.1979
     16  CA        58.7470   80.9210   31.6170 C.3    98  MET98       0.1605
     17  C         59.9520   80.6510   30.6910 C.2    98  MET98       0.2287
     18  O         61.0520   81.1780   30.9080 O.2    98  MET98      -0.2864
     19  CB        58.8220   80.0200   32.8590 C.3    98  MET98       0.0413
     20  CG        60.1280   80.1040   33.6560 C.3    98  MET98       0.0598
     21  SD        60.6370   81.8290   34.0960 S.3    98  MET98      -0.1393
     22  CE        59.2590   82.3520   35.0090 C.3    98  MET98       0.0692
     23  N         60.6170   83.8960   28.9100 N.3   101  PHE101     -0.1241
     24  CA        61.1730   84.8660   29.8650 C.3   101  PHE101      0.1605
     25  C         62.6860   84.6260   30.0020 C.2   101  PHE101      0.2264
     26  O         63.4840   85.5750   30.0010 O.2   101  PHE101     -0.2867
     27  CB        60.4890   84.6990   31.2300 C.3   101  PHE101      0.0534
     28  CG        60.8770   85.7380   32.2510 C.ar  101  PHE101     -0.0203
     29  CD1       60.3780   87.0380   32.1680 C.ar  101  PHE101     -0.0042
     30  CD2       61.7260   85.4120   33.3000 C.ar  101  PHE101     -0.0042
     31  CE1       60.7250   88.0040   33.1310 C.ar  101  PHE101     -0.0003
     32  CE2       62.0830   86.3650   34.2630 C.ar  101  PHE101     -0.0003
     33  CZ        61.5800   87.6640   34.1760 C.ar  101  PHE101     -0.0000
     34  N         54.0330   84.1250   24.7410 N.3   121  ILE121     -0.1231
     35  CA        54.0360   84.8200   26.0270 C.3   121  ILE121      0.1692
     36  C         52.6080   84.9500   26.5500 C.2   121  ILE121      0.2592
     37  O         51.6590   84.9730   25.7610 O.2   121  ILE121     -0.2718
     38  CB        54.6640   86.2790   25.8990 C.3   121  ILE121      0.0266
     39  CG1       53.8810   87.1100   24.8850 C.3   121  ILE121      0.0019
     40  CG2       56.1260   86.2120   25.4300 C.3   121  ILE121      0.0020
     41  CD1       54.4200   88.5530   24.7130 C.3   121  ILE121      0.0001
     42  N         52.4590   85.0050   27.8730 N.am  122  HIS122     -0.1962
     43  CA        51.1490   85.1910   28.5060 C.3   122  HIS122      0.1787
     44  C         51.3020   85.6160   29.9760 C.2   122  HIS122      0.2620
     45  O         52.3990   85.9220   30.4100 O.2   122  HIS122     -0.2715
     46  CB        50.2720   83.9260   28.3520 C.3   122  HIS122      0.0785
     47  CG        50.7650   82.7170   29.0890 C.ar  122  HIS122      0.0821
     48  ND1       50.2780   81.4510   28.8320 N.ar  122  HIS122     -0.2267
     49  CD2       51.6550   82.5790   30.0980 C.ar  122  HIS122      0.1154
     50  CE1       50.8480   80.5850   29.6510 C.ar  122  HIS122      0.1986
     51  NE2       51.6880   81.2430   30.4310 N.ar  122  HIS122     -0.2212
     52  N         50.2180   85.6700   30.7430 N.am  123  GLN123     -0.1964
     53  CA        50.3370   86.0790   32.1430 C.3   123  GLN123      0.1718
     54  C         50.3860   84.8630   33.0960 C.2   123  GLN123      0.2458
     55  O         50.1060   83.7270   32.6870 O.2   123  GLN123     -0.2730
     56  CB        49.1660   87.0160   32.5150 C.3   123  GLN123      0.0407
     57  CG        47.8010   86.3220   32.4910 C.3   123  GLN123      0.0908
     58  CD        46.6480   87.2210   32.9460 C.2   123  GLN123      0.2608
     59  OE1       45.7910   87.6070   32.1510 O.2   123  GLN123     -0.2717
     60  NE2       46.6240   87.5440   34.2190 N.am  123  GLN123     -0.0878
     61  N         50.7500   85.0840   34.3770 N.am  124  PRO124     -0.2727
     62  CA        50.8300   83.9920   35.3580 C.3   124  PRO124      0.1402
     63  C         49.5230   83.2300   35.6090 C.2   124  PRO124      0.2269
     64  O         48.4260   83.8040   35.5590 O.2   124  PRO124     -0.2865
     65  CB        51.2930   84.6930   36.6340 C.3   124  PRO124      0.0296
     66  CG        52.0310   85.9100   36.1390 C.3   124  PRO124      0.0237
     67  CD        51.1490   86.3650   34.9920 C.3   124  PRO124      0.0939
     68  N         56.9010   90.5550   36.8560 N.3   149  MET149     -0.1230
     69  CA        57.3120   89.9090   35.6100 C.3   149  MET149      0.1702
     70  C         57.1390   90.8430   34.4070 C.2   149  MET149      0.2592
     71  O         57.9720   90.8440   33.4870 O.2   149  MET149     -0.2718
     72  CB        56.5130   88.6200   35.3860 C.3   149  MET149      0.0401
     73  CG        56.6870   87.5960   36.5010 C.3   149  MET149      0.0596
     74  SD        58.3900   87.0900   36.7550 S.3   149  MET149     -0.1393
     75  CE        58.6880   86.1900   35.1960 C.3   149  MET149      0.0692
     76  N         56.0620   91.6250   34.4000 N.am  150  ASN150     -0.1974
     77  CA        55.8320   92.5540   33.2940 C.3   150  ASN150      0.1688
     78  C         56.8900   93.6630   33.2780 C.2   150  ASN150      0.2292
     79  O         57.2890   94.1290   32.2050 O.2   150  ASN150     -0.2864
     80  CB        54.4420   93.1920   33.3700 C.3   150  ASN150      0.1181
     81  CG        53.3220   92.2250   32.9790 C.2   150  ASN150      0.2629
     82  OD1       53.5130   91.3180   32.1610 O.2   150  ASN150     -0.2716
     83  ND2       52.1400   92.4410   33.5430 N.am  150  ASN150     -0.0877
     84  N         60.1050   92.1440   31.8230 N.3   153  MET153     -0.1245
     85  CA        59.9410   91.9150   30.3770 C.3   153  MET153      0.1570
     86  C         60.0670   93.2620   29.6040 C.2   153  MET153      0.2261
     87  O         60.6200   93.3270   28.5020 O.2   153  MET153     -0.2867
     88  CB        58.5620   91.3010   30.0860 C.3   153  MET153      0.0387
     89  CG        58.4560   89.8110   30.3640 C.3   153  MET153      0.0595
     90  SD        59.2860   88.8720   29.0750 S.3   153  MET153     -0.1393
     91  CE        58.1120   89.1580   27.7210 C.3   153  MET153      0.0692
     92  N         53.4650   95.7480   27.1010 N.3   164  ILE164     -0.1245
     93  CA        53.6720   94.3820   27.6130 C.3   164  ILE164      0.1561
     94  C         52.3910   93.8810   28.2750 C.2   164  ILE164      0.2260
     95  O         51.9910   92.7190   28.0880 O.2   164  ILE164     -0.2867
     96  CB        54.7770   94.3070   28.7040 C.3   164  ILE164      0.0252
     97  CG1       56.1630   94.5120   28.0990 C.3   164  ILE164      0.0019
     98  CG2       54.7570   92.9190   29.3740 C.3   164  ILE164      0.0019
     99  CD1       56.2670   95.6650   27.1590 C.3   164  ILE164      0.0001
    100  N         50.1300   90.5490   26.8610 N.3   168  THR168     -0.1218
    101  CA        50.1630   89.3130   27.6330 C.3   168  THR168      0.1862
    102  C         48.8670   88.9690   28.3820 C.2   168  THR168      0.2287
    103  O         48.8520   88.0260   29.1760 O.2   168  THR168     -0.2866
    104  CB        51.3380   89.3160   28.6500 C.3   168  THR168      0.1770
    105  OG1       51.1980   90.4250   29.5490 O.3   168  THR168     -0.2211
    106  CG2       52.6850   89.4190   27.9190 C.3   168  THR168      0.0375
@<TRIPOS>BOND
     1    41    39    1
     2    34    35    1
     3    39    38    1
     4    40    38    1
     5    37    36    2
     6    38    35    1
     7    35    36    1
     8    36    42   am
     9   100   101    1
    10    92    93    1
    11    99    97    1
    12    93    94    1
    13    93    96    1
    14   101   102    1
    15   101   104    1
    16     9    10    1
    17    91    90    1
    18    42    43    1
    19   106   104    1
    20    95    94    2
    21    97    96    1
    22    46    43    1
    23    46    47    1
    24   102   103    2
    25    87    86    2
    26    43    44    1
    27   104   105    1
    28    96    98    1
    29    48    47   ar
    30    48    50   ar
    31    23    24    1
    32    14    13    1
    33    10    13    1
    34    10    11    1
    35    90    89    1
    36    47    49   ar
    37    12    11    2
    38    86    85    1
    39    50    51   ar
    40    11    15   am
    41    24    25    1
    42    24    27    1
    43    44    45    2
    44    44    52   am
    45    26    25    2
    46    88    89    1
    47    88    85    1
    48    49    51   ar
    49    85    84    1
    50    17    18    2
    51    17    16    1
    52    52    53    1
    53    15    16    1
    54    27    28    1
    55    16    19    1
    56    53    56    1
    57    53    54    1
    58    59    58    2
    59    82    81    2
    60    29    28   ar
    61    29    31   ar
    62    79    78    2
    63    28    30   ar
    64    57    56    1
    65    57    58    1
    66    55    54    2
    67    19    20    1
    68    58    60   am
    69    81    80    1
    70    81    83   am
    71    54    61   am
    72    31    33   ar
    73    78    77    1
    74    77    80    1
    75    77    76    1
    76    30    32   ar
    77    71    70    2
    78    20    21    1
    79    21    22    1
    80    33    32   ar
    81    61    67    1
    82    61    62    1
    83    76    70   am
    84    70    69    1
    85    67    66    1
    86    75    74    1
    87    62    63    1
    88    62    65    1
    89    72    69    1
    90    72    73    1
    91    64    63    2
    92    69    68    1
    93    66    65    1
    94    73    74    1
    95     8     6    1
    96     6     5    1
    97     1     2    1
    98     2     5    1
    99     2     3    1
   100     5     7    1
   101     4     3    2
