@<TRIPOS>MOLECULE
tmp/1ygbA00.pdb
 80 74 0 0 0
SMALL
GASTEIGER

@<TRIPOS>ATOM
      1  N         -4.0040    0.4020   73.7270 N.3    41  ALA41      -0.1245
      2  CA        -3.4530   -0.6750   72.9170 C.3    41  ALA41       0.1562
      3  C         -4.2910   -1.9510   72.9740 C.2    41  ALA41       0.2260
      4  O         -5.1050   -2.1390   73.8750 O.2    41  ALA41      -0.2867
      5  CB        -2.0190   -0.9670   73.3560 C.3    41  ALA41       0.0290
      6  N         -3.6770   -4.8410   73.9530 N.3    43  MET43      -0.1245
      7  CA        -3.5180   -5.6370   75.1670 C.3    43  MET43       0.1570
      8  C         -4.3610   -5.1920   76.3650 C.2    43  MET43       0.2261
      9  O         -4.8180   -6.0260   77.1480 O.2    43  MET43      -0.2867
     10  CB        -2.0370   -5.6800   75.5710 C.3    43  MET43       0.0387
     11  CG        -1.4280   -4.3410   75.9350 C.3    43  MET43       0.0595
     12  SD        -0.7830   -4.3190   77.6200 S.3    43  MET43      -0.1393
     13  CE        -2.0620   -3.3810   78.4230 C.3    43  MET43       0.0692
     14  N         -4.8800    7.8150   72.1760 N.3    69  ARG69      -0.1245
     15  CA        -3.6870    8.1860   72.9340 C.3    69  ARG69       0.1563
     16  C         -3.6230    9.6960   73.1300 C.2    69  ARG69       0.2260
     17  O         -2.6590   10.3460   72.7370 O.2    69  ARG69      -0.2867
     18  CB        -2.4210    7.6670   72.2520 C.3    69  ARG69       0.0307
     19  CG        -2.1310    6.2050   72.5620 C.3    69  ARG69       0.0489
     20  CD        -0.7200    5.8420   72.1710 C.3    69  ARG69       0.2205
     21  NE        -0.3660    4.5060   72.6350 N.pl3  69  ARG69      -0.0865
     22  CZ         0.8570    3.9890   72.5750 C.cat  69  ARG69       0.5346
     23  NH1        1.8540    4.7000   72.0680 N.pl3  69  ARG69       0.1354
     24  NH2        1.0810    2.7620   73.0280 N.pl3  69  ARG69       0.1354
     25  N         -5.2070   -0.7480   66.2520 N.3    92  MET92      -0.1245
     26  CA        -4.0430   -1.5700   66.5090 C.3    92  MET92       0.1570
     27  C         -4.2990   -3.0420   66.2210 C.2    92  MET92       0.2261
     28  O         -5.2140   -3.6530   66.7760 O.2    92  MET92      -0.2867
     29  CB        -3.5950   -1.4220   67.9660 C.3    92  MET92       0.0387
     30  CG        -2.3760   -2.2710   68.2830 C.3    92  MET92       0.0595
     31  SD        -2.4270   -3.0260   69.9120 S.3    92  MET92      -0.1393
     32  CE        -0.7790   -2.6960   70.4960 C.3    92  MET92       0.0692
     33  N          9.5140   -3.5710   77.0750 N.3   161  TRP161     -0.1241
     34  CA         8.1150   -3.2840   77.3550 C.3   161  TRP161      0.1605
     35  C          7.6960   -3.7180   78.7650 C.2   161  TRP161      0.2264
     36  O          7.8600   -4.8800   79.1460 O.2   161  TRP161     -0.2867
     37  CB         7.2400   -3.9880   76.3080 C.3   161  TRP161      0.0550
     38  CG         5.7740   -3.7430   76.4830 C.ar  161  TRP161      0.0003
     39  CD1        5.0450   -2.7210   75.9580 C.ar  161  TRP161      0.0946
     40  CD2        4.8850   -4.4830   77.3230 C.ar  161  TRP161      0.0152
     41  NE1        3.7540   -2.7710   76.4250 N.ar  161  TRP161     -0.2442
     42  CE2        3.6290   -3.8460   77.2670 C.ar  161  TRP161      0.0810
     43  CE3        5.0310   -5.6240   78.1250 C.ar  161  TRP161      0.0012
     44  CZ2        2.5180   -4.3120   77.9840 C.ar  161  TRP161      0.0191
     45  CZ3        3.9330   -6.0850   78.8340 C.ar  161  TRP161      0.0001
     46  CH2        2.6910   -5.4290   78.7590 C.ar  161  TRP161      0.0015
     47  N          5.5560   -4.4300   66.4620 N.3   194  ASN194     -0.1240
     48  CA         6.1970   -4.5570   67.7700 C.3   194  ASN194      0.1653
     49  C          5.7070   -5.8330   68.4520 C.2   194  ASN194      0.2266
     50  O          4.5440   -5.9330   68.8330 O.2   194  ASN194     -0.2867
     51  CB         5.8730   -3.3480   68.6610 C.3   194  ASN194      0.1155
     52  CG         6.4430   -3.4890   70.0720 C.2   194  ASN194      0.2627
     53  OD1        5.6980   -3.6620   71.0430 O.2   194  ASN194     -0.2716
     54  ND2        7.7740   -3.4200   70.1870 N.am  194  ASN194     -0.0877
     55  N          6.0330   -8.0150   71.6500 N.3   196  VAL196     -0.1245
     56  CA         6.4890   -7.9900   73.0400 C.3   196  VAL196      0.1561
     57  C          6.4440   -9.3720   73.6910 C.2   196  VAL196      0.2260
     58  O          5.4320  -10.0670   73.6170 O.2   196  VAL196     -0.2867
     59  CB         5.6300   -7.0300   73.8790 C.3   196  VAL196      0.0252
     60  CG1        6.1360   -7.0000   75.3150 C.3   196  VAL196      0.0019
     61  CG2        5.6640   -5.6450   73.2680 C.3   196  VAL196      0.0019
     62  N          2.4670  -10.2300   73.3640 N.3   217  ASP217     -0.1225
     63  CA         1.6880   -9.0140   73.1640 C.3   217  ASP217      0.1805
     64  C          2.3350   -8.2380   72.0160 C.2   217  ASP217      0.2598
     65  O          3.4350   -7.6980   72.1650 O.2   217  ASP217     -0.2718
     66  CB         1.6820   -8.1860   74.4600 C.3   217  ASP217      0.1424
     67  CG         1.1730   -6.7550   74.2670 C.2   217  ASP217      0.3668
     68  OD1        1.2040   -5.9850   75.2520 O.co2 217  ASP217     -0.2456
     69  OD2        0.7480   -6.3890   73.1540 O.co2 217  ASP217     -0.2456
     70  N          1.6610   -8.2040   70.8680 N.am  218  THR218     -0.1939
     71  CA         2.1800   -7.4860   69.7080 C.3   218  THR218      0.2028
     72  C          1.2240   -6.3870   69.2770 C.2   218  THR218      0.2642
     73  O          0.0390   -6.4120   69.6080 O.2   218  THR218     -0.2714
     74  CB         2.3920   -8.4030   68.4870 C.3   218  THR218      0.1808
     75  OG1        1.1530   -8.5700   67.7920 O.3   218  THR218     -0.2208
     76  CG2        2.9150   -9.7500   68.9160 C.3   218  THR218      0.0379
     77  N          1.7490   -5.4280   68.5230 N.am  219  GLY219     -0.1954
     78  CA         0.9300   -4.3330   68.0450 C.3   219  GLY219      0.1869
     79  C          1.3940   -3.8110   66.7040 C.2   219  GLY219      0.2309
     80  O          2.5810   -3.8640   66.3790 O.2   219  GLY219     -0.2863
@<TRIPOS>BOND
     1    27    26    1
     2    27    28    2
     3    25    26    1
     4    80    79    2
     5    47    48    1
     6    26    29    1
     7    79    78    1
     8    48    49    1
     9    48    51    1
    10    75    74    1
    11    29    30    1
    12    78    77    1
    13    30    31    1
    14    49    50    2
    15    74    76    1
    16    74    71    1
    17    77    72   am
    18    51    52    1
    19    72    73    2
    20    72    71    1
    21    71    70    1
    22    31    32    1
    23    52    54   am
    24    52    53    2
    25    70    64   am
    26    55    56    1
    27    64    65    2
    28    64    63    1
    29    23    22    1
    30    20    19    1
    31    20    21    1
    32    14    15    1
    33    18    19    1
    34    18    15    1
    35    22    21    2
    36    22    24    1
    37    17    16    2
    38     2     3    1
    39     2     5    1
    40     2     1    1
    41    15    16    1
    42     3     4    2
    43    56    57    1
    44    56    59    1
    45    69    67   ar
    46    63    62    1
    47    63    66    1
    48    61    59    1
    49    58    57    2
    50    59    60    1
    51     6     7    1
    52    67    66    1
    53    67    68   ar
    54     7    10    1
    55     7     8    1
    56    10    11    1
    57    11    12    1
    58    39    41   ar
    59    39    38   ar
    60    37    38    1
    61    37    34    1
    62     8     9    2
    63    41    42   ar
    64    38    40   ar
    65    33    34    1
    66    42    40   ar
    67    42    44   ar
    68    40    43   ar
    69    34    35    1
    70    12    13    1
    71    44    46   ar
    72    43    45   ar
    73    46    45   ar
    74    35    36    2
