@<TRIPOS>MOLECULE
tmp/1ygcA00.pdb
 191 189 0 0 0
SMALL
GASTEIGER

@<TRIPOS>ATOM
      1  N         13.5500   42.7470   40.7360 N.3    41  HIS41      -0.1241
      2  CA        12.1940   42.9420   40.2120 C.3    41  HIS41       0.1621
      3  C         11.2070   41.8520   40.6110 C.2    41  HIS41       0.2264
      4  O          9.9950   42.0580   40.5440 O.2    41  HIS41      -0.2867
      5  CB        12.1910   43.1720   38.6900 C.3    41  HIS41       0.0745
      6  CG        12.2490   41.9160   37.8760 C.ar   41  HIS41       0.0817
      7  ND1       13.4170   41.4480   37.3170 N.ar   41  HIS41      -0.2268
      8  CD2       11.2730   41.0640   37.4740 C.ar   41  HIS41       0.1154
      9  CE1       13.1640   40.3670   36.6010 C.ar   41  HIS41       0.1986
     10  NE2       11.8690   40.1110   36.6820 N.ar   41  HIS41      -0.2212
     11  N          8.8610   43.2480   43.4320 N.3    44  ASP44      -0.1225
     12  CA         8.1180   44.5020   43.2710 C.3    44  ASP44       0.1805
     13  C          6.6870   44.4790   43.8120 C.2    44  ASP44       0.2597
     14  O          6.2030   45.4840   44.3480 O.2    44  ASP44      -0.2718
     15  CB         8.0540   44.9110   41.7900 C.3    44  ASP44       0.1424
     16  CG         9.3290   45.5870   41.2890 C.2    44  ASP44       0.3668
     17  OD1       10.3400   45.6370   42.0190 O.co2  44  ASP44      -0.2456
     18  OD2        9.3150   46.0630   40.1330 O.co2  44  ASP44      -0.2456
     19  N          6.0250   43.3310   43.6930 N.am   45  LYS45      -0.1979
     20  CA         4.6220   43.2020   44.1040 C.3    45  LYS45       0.1596
     21  C          4.3290   42.4160   45.3780 C.2    45  LYS45       0.2287
     22  O          3.1780   42.0510   45.6280 O.2    45  LYS45      -0.2864
     23  CB         3.8170   42.5950   42.9480 C.3    45  LYS45       0.0298
     24  CG         4.1300   43.2170   41.5940 C.3    45  LYS45       0.0038
     25  CD         3.5910   42.3740   40.4500 C.3    45  LYS45       0.0206
     26  CE         3.9920   42.9580   39.1040 C.3    45  LYS45       0.1093
     27  NZ         3.3830   42.1850   37.9880 N.3    45  LYS45      -0.1314
     28  N         18.2900   50.4950   42.9540 N.3    82  TYR82      -0.1241
     29  CA        17.2110   49.8460   42.2210 C.3    82  TYR82       0.1605
     30  C         15.8940   50.5960   42.4120 C.2    82  TYR82       0.2264
     31  O         15.5150   50.9110   43.5330 O.2    82  TYR82      -0.2867
     32  CB        17.0260   48.3980   42.6920 C.3    82  TYR82       0.0534
     33  CG        15.8000   47.7480   42.0920 C.ar   82  TYR82      -0.0201
     34  CD1       15.7650   47.3990   40.7440 C.ar   82  TYR82      -0.0009
     35  CD2       14.6530   47.5340   42.8590 C.ar   82  TYR82      -0.0009
     36  CE1       14.6130   46.8540   40.1640 C.ar   82  TYR82       0.0417
     37  CE2       13.4950   46.9940   42.2920 C.ar   82  TYR82       0.0417
     38  CZ        13.4850   46.6570   40.9410 C.ar   82  TYR82       0.1957
     39  OH        12.3360   46.1410   40.3700 O.3    82  TYR82      -0.2866
     40  N          9.9600   48.8250   38.9190 N.3    85  GLY85      -0.1210
     41  CA         9.3550   49.1650   37.6430 C.3    85  GLY85       0.1956
     42  C         10.3530   49.5240   36.5620 C.2    85  GLY85       0.2613
     43  O          9.9670   49.7070   35.4110 O.2    85  GLY85      -0.2717
     44  N         11.6280   49.6490   36.9330 N.am   86  THR86      -0.1938
     45  CA        12.6890   49.9750   35.9790 C.3    86  THR86       0.2028
     46  C         13.6770   48.8050   35.9140 C.2    86  THR86       0.2642
     47  O         13.6440   47.9110   36.7690 O.2    86  THR86      -0.2714
     48  CB        13.4080   51.2730   36.3570 C.3    86  THR86       0.1808
     49  OG1       14.1240   51.0820   37.5790 O.3    86  THR86      -0.2208
     50  CG2       12.3890   52.4000   36.5490 C.3    86  THR86       0.0379
     51  N         14.5970   48.8510   34.9530 N.am   87  THR87      -0.1950
     52  CA        15.5330   47.7460   34.7260 C.3    87  THR87       0.1897
     53  C         16.9140   47.7160   35.3810 C.2    87  THR87       0.2313
     54  O         17.4810   46.6400   35.5490 O.2    87  THR87      -0.2863
     55  CB        15.7760   47.5500   33.2160 C.3    87  THR87       0.1794
     56  OG1       16.3820   48.7350   32.6850 O.3    87  THR87      -0.2208
     57  CG2       14.4560   47.2840   32.4740 C.3    87  THR87       0.0378
     58  N         19.2270   45.1780   38.8000 N.3    90  ASP90      -0.1239
     59  CA        18.2650   44.1170   39.0580 C.3    90  ASP90       0.1674
     60  C         18.8590   42.9080   39.7740 C.2    90  ASP90       0.2266
     61  O         19.0540   41.8380   39.1830 O.2    90  ASP90      -0.2867
     62  CB        17.6060   43.7040   37.7430 C.3    90  ASP90       0.1410
     63  CG        16.3580   42.8670   37.9540 C.2    90  ASP90       0.3668
     64  OD1       15.9440   42.1870   37.0030 O.co2  90  ASP90      -0.2456
     65  OD2       15.7940   42.8850   39.0630 O.co2  90  ASP90      -0.2456
     66  N         14.4520   50.0920   26.9920 N.3   169  PRO169     -0.2116
     67  CA        15.3420   50.5270   28.0700 C.3   169  PRO169      0.1372
     68  C         16.8110   50.3680   27.6790 C.2   169  PRO169      0.2244
     69  O         17.1610   49.5250   26.8460 O.2   169  PRO169     -0.2868
     70  CB        14.9370   49.6290   29.2500 C.3   169  PRO169      0.0268
     71  CG        14.3110   48.4380   28.6120 C.3   169  PRO169      0.0207
     72  CD        13.5690   48.9980   27.4390 C.3   169  PRO169      0.0892
     73  N         16.0840   31.4790   24.2240 N.3   186  ASP186     -0.1225
     74  CA        16.1870   32.6060   25.1510 C.3   186  ASP186      0.1805
     75  C         15.5940   32.1660   26.4790 C.2   186  ASP186      0.2598
     76  O         15.0110   31.0840   26.5790 O.2   186  ASP186     -0.2718
     77  CB        15.3450   33.7760   24.5870 C.3   186  ASP186      0.1424
     78  CG        15.5840   35.1130   25.2950 C.2   186  ASP186      0.3668
     79  OD1       16.4310   35.2210   26.2050 O.co2 186  ASP186     -0.2456
     80  OD2       14.8980   36.0920   24.9240 O.co2 186  ASP186     -0.2456
     81  N         15.8550   32.9340   27.5280 N.am  187  SER187     -0.1938
     82  CA        15.2180   32.6660   28.8100 C.3   187  SER187      0.2055
     83  C         13.9120   33.4930   28.7090 C.2   187  SER187      0.2643
     84  O         13.7010   34.2050   27.7130 O.2   187  SER187     -0.2714
     85  CB        16.1070   33.1250   29.9800 C.3   187  SER187      0.2130
     86  OG        16.5340   34.4680   29.8430 O.3   187  SER187     -0.2179
     87  N         13.0330   33.4090   29.7080 N.am  188  CYS188     -0.1953
     88  CA        11.7720   34.1520   29.6410 C.3   188  CYS188      0.1843
     89  C         11.3560   34.6770   31.0160 C.2   188  CYS188      0.2625
     90  O         12.0730   34.4930   32.0060 O.2   188  CYS188     -0.2714
     91  CB        10.6680   33.2780   28.9920 C.3   188  CYS188      0.0997
     92  SG         9.2140   34.1700   28.3010 S.3   188  CYS188     -0.0797
     93  N         10.2180   35.3620   31.0570 N.am  189  LYS189     -0.1977
     94  CA         9.6820   35.9730   32.2820 C.3   189  LYS189      0.1596
     95  C          9.7240   35.1190   33.5470 C.2   189  LYS189      0.2287
     96  O         10.1960   35.5770   34.5890 O.2   189  LYS189     -0.2864
     97  CB         8.2460   36.4520   32.0280 C.3   189  LYS189      0.0298
     98  CG         8.1670   37.5730   31.0030 C.3   189  LYS189      0.0038
     99  CD         6.8000   37.6760   30.3380 C.3   189  LYS189      0.0206
    100  CE         5.6820   37.8620   31.3460 C.3   189  LYS189      0.1093
    101  NZ         4.4030   38.2030   30.6500 N.3   189  LYS189     -0.1314
    102  N         13.0140   34.6390   35.4200 N.3   192  SER192     -0.1217
    103  CA        13.5420   35.8240   36.1150 C.3   192  SER192      0.1889
    104  C         14.1820   35.4680   37.4440 C.2   192  SER192      0.2288
    105  O         13.5710   34.7710   38.2560 O.2   192  SER192     -0.2866
    106  CB        12.4130   36.8400   36.3950 C.3   192  SER192      0.2089
    107  OG        12.0070   37.5320   35.2170 O.3   192  SER192     -0.2183
    108  N         18.8920   36.2210   35.2140 N.3   210  VAL210     -0.1231
    109  CA        17.8380   36.4410   34.2070 C.3   210  VAL210      0.1692
    110  C         17.1150   37.7160   34.6290 C.2   210  VAL210      0.2593
    111  O         16.5320   37.7790   35.7070 O.2   210  VAL210     -0.2718
    112  CB        16.8210   35.2710   34.1640 C.3   210  VAL210      0.0266
    113  CG1       15.7130   35.5810   33.1440 C.3   210  VAL210      0.0020
    114  CG2       17.5260   33.9740   33.7710 C.3   210  VAL210      0.0020
    115  N         17.1520   38.7350   33.7800 N.am  211  SER211     -0.1938
    116  CA        16.5470   40.0070   34.1550 C.3   211  SER211      0.2055
    117  C         15.4190   40.5140   33.2870 C.2   211  SER211      0.2643
    118  O         14.2970   40.6970   33.7640 O.2   211  SER211     -0.2714
    119  CB        17.6410   41.0770   34.2570 C.3   211  SER211      0.2130
    120  OG        17.1150   42.3060   34.7270 O.3   211  SER211     -0.2179
    121  N         15.7050   40.7510   32.0120 N.am  212  TRP212     -0.1959
    122  CA        14.6790   41.2790   31.1370 C.3   212  TRP212      0.1771
    123  C         14.9420   41.0670   29.6610 C.2   212  TRP212      0.2620
    124  O         15.9720   40.5240   29.2600 O.2   212  TRP212     -0.2715
    125  CB        14.4440   42.7780   31.4290 C.3   212  TRP212      0.0590
    126  CG        15.5980   43.6830   31.1080 C.ar  212  TRP212      0.0006
    127  CD1       16.6640   43.9700   31.9200 C.ar  212  TRP212      0.0946
    128  CD2       15.7890   44.4520   29.9070 C.ar  212  TRP212      0.0152
    129  NE1       17.4990   44.8690   31.3000 N.ar  212  TRP212     -0.2442
    130  CE2       16.9880   45.1820   30.0650 C.ar  212  TRP212      0.0810
    131  CE3       15.0640   44.5920   28.7120 C.ar  212  TRP212      0.0012
    132  CZ2       17.4840   46.0430   29.0720 C.ar  212  TRP212      0.0191
    133  CZ3       15.5600   45.4500   27.7180 C.ar  212  TRP212      0.0001
    134  CH2       16.7580   46.1620   27.9080 C.ar  212  TRP212      0.0015
    135  N         13.9550   41.4500   28.8650 N.am  213  GLY213     -0.1940
    136  CA        14.0600   41.3250   27.4270 C.3   213  GLY213      0.2014
    137  C         12.8600   42.0080   26.8050 C.2   213  GLY213      0.2639
    138  O         11.9140   42.3680   27.5060 O.2   213  GLY213     -0.2714
    139  N         12.9210   42.2160   25.4950 N.am  214  GLN214     -0.1963
    140  CA        11.8340   42.8380   24.7410 C.3   214  GLN214      0.1733
    141  C         11.1240   41.6150   24.1560 C.2   214  GLN214      0.2617
    142  O         11.2780   41.2870   22.9790 O.2   214  GLN214     -0.2715
    143  CB        12.4280   43.7190   23.6310 C.3   214  GLN214      0.0408
    144  CG        11.7680   45.0780   23.4840 C.3   214  GLN214      0.0908
    145  CD        12.7480   46.2430   23.6080 C.2   214  GLN214      0.2608
    146  OE1       13.8790   46.1930   23.1080 O.2   214  GLN214     -0.2717
    147  NE2       12.3040   47.3080   24.2610 N.am  214  GLN214     -0.0878
    148  N         10.3780   40.9210   25.0120 N.am  215  GLY215     -0.1940
    149  CA         9.7090   39.6980   24.6060 C.3   215  GLY215      0.2014
    150  C         10.7320   38.5670   24.7320 C.2   215  GLY215      0.2639
    151  O         11.9360   38.8200   24.8690 O.2   215  GLY215     -0.2714
    152  N         10.2620   37.3240   24.6860 N.am  216  CYS216     -0.1967
    153  CA        11.1410   36.1560   24.7970 C.3   216  CYS216      0.1712
    154  C         11.4450   35.5670   23.4250 C.2   216  CYS216      0.2296
    155  O         10.5310   35.2010   22.6960 O.2   216  CYS216     -0.2864
    156  CB        10.4850   35.0910   25.6850 C.3   216  CYS216      0.0983
    157  SG        10.0320   35.7500   27.3180 S.3   216  CYS216     -0.0798
    158  N         17.9840   40.0300   22.0070 N.3   222  PHE222     -0.1227
    159  CA        18.7010   39.1200   22.8960 C.3   222  PHE222      0.1736
    160  C         18.1850   39.2160   24.3330 C.2   222  PHE222      0.2596
    161  O         17.5670   40.2040   24.7090 O.2   222  PHE222     -0.2718
    162  CB        20.1850   39.5040   22.9120 C.3   222  PHE222      0.0547
    163  CG        20.8730   39.3230   21.5930 C.ar  222  PHE222     -0.0202
    164  CD1       21.4150   38.0960   21.2460 C.ar  222  PHE222     -0.0042
    165  CD2       20.9590   40.3710   20.6880 C.ar  222  PHE222     -0.0042
    166  CE1       22.0350   37.9110   20.0060 C.ar  222  PHE222     -0.0003
    167  CE2       21.5750   40.1980   19.4480 C.ar  222  PHE222     -0.0003
    168  CZ        22.1110   38.9670   19.1090 C.ar  222  PHE222     -0.0000
    169  N         18.4840   38.1980   25.1360 N.am  223  GLY223     -0.1942
    170  CA        18.0990   38.2260   26.5360 C.3   223  GLY223      0.2014
    171  C         19.0610   39.1670   27.2480 C.2   223  GLY223      0.2639
    172  O         20.2040   39.3150   26.8170 O.2   223  GLY223     -0.2714
    173  N         18.5890   39.8650   28.2780 N.am  224  VAL224     -0.1963
    174  CA        19.4530   40.7840   29.0320 C.3   224  VAL224      0.1727
    175  C         19.5590   40.2770   30.4610 C.2   224  VAL224      0.2616
    176  O         18.5520   39.9390   31.0970 O.2   224  VAL224     -0.2715
    177  CB        18.9350   42.2310   29.0180 C.3   224  VAL224      0.0290
    178  CG1       19.9670   43.1560   29.6460 C.3   224  VAL224      0.0023
    179  CG2       18.6560   42.6640   27.5800 C.3   224  VAL224      0.0023
    180  N         20.7910   40.2630   30.9570 N.am  225  TYR225     -0.1974
    181  CA        21.1080   39.7340   32.2730 C.3   225  TYR225      0.1639
    182  C         21.8410   40.7270   33.1690 C.2   225  TYR225      0.2290
    183  O         22.5720   41.5870   32.6890 O.2   225  TYR225     -0.2864
    184  CB        21.9870   38.4870   32.0860 C.3   225  TYR225      0.0560
    185  CG        21.3320   37.3950   31.2540 C.ar  225  TYR225     -0.0198
    186  CD1       21.2840   37.4730   29.8570 C.ar  225  TYR225     -0.0009
    187  CD2       20.7150   36.3150   31.8710 C.ar  225  TYR225     -0.0009
    188  CE1       20.6190   36.4880   29.1020 C.ar  225  TYR225      0.0417
    189  CE2       20.0550   35.3480   31.1420 C.ar  225  TYR225      0.0417
    190  CZ        20.0020   35.4310   29.7660 C.ar  225  TYR225      0.1957
    191  OH        19.3010   34.4630   29.0780 O.3   225  TYR225     -0.2866
@<TRIPOS>BOND
     1   168   167   ar
     2   168   166   ar
     3   167   165   ar
     4   166   164   ar
     5   165   163   ar
     6   164   163   ar
     7   163   162    1
     8   158   159    1
     9   155   154    2
    10   159   162    1
    11   159   160    1
    12   142   141    2
    13   146   145    2
    14   154   153    1
    15   144   145    1
    16   144   143    1
    17   145   147   am
    18   143   140    1
    19   141   140    1
    20   141   148   am
    21    73    74    1
    22   160   161    2
    23   160   169   am
    24    77    74    1
    25    77    78    1
    26   149   150    1
    27   149   148    1
    28   152   150   am
    29   152   153    1
    30   150   151    2
    31   140   139    1
    32   153   156    1
    33    80    78   ar
    34   169   170    1
    35    74    75    1
    36    78    79   ar
    37   139   137   am
    38   156   157    1
    39    75    76    2
    40    75    81   am
    41   170   171    1
    42   137   136    1
    43   137   138    2
    44   172   171    2
    45    69    68    2
    46    66    72    1
    47    66    67    1
    48   171   173   am
    49   157    92    1
    50   136   135    1
    51    72    71    1
    52    81    82    1
    53   179   177    1
    54    68    67    1
    55    84    83    2
    56   133   134   ar
    57   133   131   ar
    58   134   132   ar
    59    67    70    1
    60   173   174    1
    61    92    91    1
    62    71    70    1
    63    83    82    1
    64    83    87   am
    65   131   128   ar
    66    82    85    1
    67   135   123   am
    68    91    88    1
    69   177   174    1
    70   177   178    1
    71   174   175    1
    72   132   130   ar
    73   191   190    1
    74   188   190   ar
    75   188   186   ar
    76   124   123    2
    77    88    87    1
    78    88    89    1
    79   123   122    1
    80   190   189   ar
    81    86    85    1
    82   186   185   ar
    83   128   130   ar
    84   128   126   ar
    85   130   129   ar
    86    99    98    1
    87    99   100    1
    88   175   180   am
    89   175   176    2
    90   101   100    1
    91   180   181    1
    92    98    97    1
    93    89    93   am
    94    89    90    2
    95    93    94    1
    96   126   125    1
    97   126   127   ar
    98   122   125    1
    99   122   121    1
   100   189   187   ar
   101   185   187   ar
   102   185   184    1
   103   129   127   ar
   104   121   117   am
   105    97    94    1
   106   184   181    1
   107   181   182    1
   108    94    95    1
   109    57    55    1
   110    56    55    1
   111   183   182    2
   112   113   112    1
   113    55    52    1
   114   117   118    2
   115   117   116    1
   116    95    96    2
   117   114   112    1
   118   115   116    1
   119   115   110   am
   120   116   119    1
   121   112   109    1
   122   109   110    1
   123   109   108    1
   124   119   120    1
   125   110   111    2
   126    52    51    1
   127    52    53    1
   128    51    46   am
   129   107   106    1
   130    53    54    2
   131    43    42    2
   132   102   103    1
   133    46    45    1
   134    46    47    2
   135    45    48    1
   136    45    44    1
   137   103   106    1
   138   103   104    1
   139    48    50    1
   140    48    49    1
   141    42    44   am
   142    42    41    1
   143     9    10   ar
   144     9     7   ar
   145    10     8   ar
   146    64    63   ar
   147     7     6   ar
   148   104   105    2
   149     8     6   ar
   150    41    40    1
   151    62    63    1
   152    62    59    1
   153     6     5    1
   154    63    65   ar
   155    27    26    1
   156     5     2    1
   157    58    59    1
   158    59    60    1
   159    26    25    1
   160    61    60    2
   161    18    16   ar
   162    36    34   ar
   163    36    38   ar
   164     2     3    1
   165     2     1    1
   166    39    38    1
   167    25    24    1
   168     4     3    2
   169    34    33   ar
   170    38    37   ar
   171    16    15    1
   172    16    17   ar
   173    24    23    1
   174    15    12    1
   175    33    32    1
   176    33    35   ar
   177    29    30    1
   178    29    32    1
   179    29    28    1
   180    37    35   ar
   181    30    31    2
   182    23    20    1
   183    12    11    1
   184    12    13    1
   185    19    13   am
   186    19    20    1
   187    13    14    2
   188    20    21    1
   189    21    22    2
