@<TRIPOS>MOLECULE
tmp/1ygkA00.pdb
 156 148 0 0 0
SMALL
GASTEIGER

@<TRIPOS>ATOM
      1  N        -15.0810   40.8590   14.5310 N.3     9  SER9       -0.1217
      2  CA       -15.4310   41.2880   13.1950 C.3     9  SER9        0.1889
      3  C        -15.5340   40.1530   12.1990 C.2     9  SER9        0.2288
      4  O        -15.0000   39.0570   12.4060 O.2     9  SER9       -0.2866
      5  CB       -14.4220   42.3160   12.6840 C.3     9  SER9        0.2089
      6  OG       -13.1490   41.7370   12.4660 O.3     9  SER9       -0.2183
      7  N        -15.3510   39.4260    7.8530 N.3    11  VAL11      -0.1245
      8  CA       -15.0070   39.9660    6.5260 C.3    11  VAL11       0.1561
      9  C        -15.4200   38.9630    5.4590 C.2    11  VAL11       0.2260
     10  O        -15.1770   37.7700    5.5900 O.2    11  VAL11      -0.2867
     11  CB       -13.4810   40.2290    6.3060 C.3    11  VAL11       0.0252
     12  CG1      -13.0590   41.5520    6.9450 C.3    11  VAL11       0.0019
     13  CG2      -12.6550   39.0280    6.8270 C.3    11  VAL11       0.0019
     14  N         -9.7900   37.5890    9.5050 N.3    16  VAL16      -0.1231
     15  CA        -9.5790   38.5440   10.5530 C.3    16  VAL16       0.1692
     16  C        -10.7740   38.3880   11.4700 C.2    16  VAL16       0.2592
     17  O        -11.8690   38.1080   11.0080 O.2    16  VAL16      -0.2718
     18  CB        -9.4470   39.9510    9.9120 C.3    16  VAL16       0.0266
     19  CG1      -10.5810   40.8140   10.2830 C.3    16  VAL16       0.0020
     20  CG2       -8.1310   40.5650   10.3040 C.3    16  VAL16       0.0020
     21  N        -10.5500   38.5160   12.7730 N.am   17  GLY17      -0.1957
     22  CA       -11.6400   38.3720   13.7200 C.3    17  GLY17       0.1869
     23  C        -12.2840   36.9960   13.6650 C.2    17  GLY17       0.2309
     24  O        -11.5730   35.9820   13.6060 O.2    17  GLY17      -0.2863
     25  N        -19.2690   41.6500   14.9990 N.3    37  SER37      -0.1202
     26  CA       -19.2530   43.0740   15.3470 C.3    37  SER37       0.2020
     27  C        -19.2960   43.9930   14.1390 C.2    37  SER37       0.2618
     28  O        -19.7550   45.1150   14.2520 O.2    37  SER37      -0.2717
     29  CB       -18.0450   43.4160   16.1960 C.3    37  SER37       0.2103
     30  OG       -16.8740   42.9940   15.5420 O.3    37  SER37      -0.2182
     31  N        -18.7800   43.5570   13.0010 N.am   38  VAL38      -0.1979
     32  CA       -18.8920   44.3620   11.7910 C.3    38  VAL38       0.1595
     33  C        -18.9270   43.3660   10.6510 C.2    38  VAL38       0.2287
     34  O        -18.6910   42.1850   10.8390 O.2    38  VAL38      -0.2864
     35  CB       -17.6730   45.3390   11.5160 C.3    38  VAL38       0.0276
     36  CG1      -17.3310   46.2000   12.7330 C.3    38  VAL38       0.0022
     37  CG2      -16.4740   44.5520   11.0590 C.3    38  VAL38       0.0022
     38  N        -17.4540   43.7060    6.9250 N.3    40  PHE40      -0.1241
     39  CA       -16.7120   44.4570    5.9370 C.3    40  PHE40       0.1605
     40  C        -16.2950   43.5270    4.8110 C.2    40  PHE40       0.2264
     41  O        -16.1790   42.3050    5.0040 O.2    40  PHE40      -0.2867
     42  CB       -15.4880   45.1140    6.6130 C.3    40  PHE40       0.0534
     43  CG       -15.8130   46.4270    7.2840 C.ar   40  PHE40      -0.0203
     44  CD1      -15.2940   47.6330    6.8010 C.ar   40  PHE40      -0.0042
     45  CD2      -16.7400   46.4750    8.3190 C.ar   40  PHE40      -0.0042
     46  CE1      -15.7100   48.8660    7.3400 C.ar   40  PHE40      -0.0003
     47  CE2      -17.1570   47.6920    8.8570 C.ar   40  PHE40      -0.0003
     48  CZ       -16.6450   48.8890    8.3680 C.ar   40  PHE40      -0.0000
     49  N        -13.5070   43.3490    3.5280 N.3    42  ASN42      -0.1225
     50  CA       -12.1890   42.8190    3.8500 C.3    42  ASN42       0.1785
     51  C        -11.5720   43.7430    4.8740 C.2    42  ASN42       0.2597
     52  O        -12.0910   44.8210    5.1130 O.2    42  ASN42      -0.2718
     53  CB       -11.3330   42.8100    2.6030 C.3    42  ASN42       0.1169
     54  CG       -11.2430   44.1620    1.9840 C.2    42  ASN42       0.2627
     55  OD1      -10.3700   44.9580    2.3350 O.2    42  ASN42      -0.2716
     56  ND2      -12.1700   44.4610    1.0780 N.am   42  ASN42      -0.0877
     57  N        -10.4560   43.3510    5.4690 N.am   43  HIS43      -0.1961
     58  CA        -9.8500   44.2070    6.4790 C.3    43  HIS43       0.1787
     59  C         -9.3580   45.5340    5.8950 C.2    43  HIS43       0.2621
     60  O         -9.0660   45.6230    4.7080 O.2    43  HIS43      -0.2715
     61  CB        -8.7340   43.4610    7.2070 C.3    43  HIS43       0.0785
     62  CG        -7.5110   43.2350    6.3860 C.ar   43  HIS43       0.0821
     63  ND1       -6.8450   44.2620    5.7520 N.ar   43  HIS43      -0.2267
     64  CD2       -6.7640   42.1240    6.1870 C.ar   43  HIS43       0.1154
     65  CE1       -5.7380   43.7960    5.2090 C.ar   43  HIS43       0.1986
     66  NE2       -5.6620   42.4990    5.4580 N.ar   43  HIS43      -0.2212
     67  N         -9.2570   46.5560    6.7410 N.am   44  THR44      -0.1937
     68  CA        -8.9000   47.9050    6.2860 C.3    44  THR44       0.2028
     69  C         -7.4670   48.1930    5.8950 C.2    44  THR44       0.2642
     70  O         -7.0660   49.3490    5.8460 O.2    44  THR44      -0.2714
     71  CB        -9.3340   48.9760    7.3120 C.3    44  THR44       0.1808
     72  OG1       -8.7580   48.6870    8.5850 O.3    44  THR44      -0.2208
     73  CG2      -10.8270   48.9890    7.4610 C.3    44  THR44       0.0379
     74  N         -6.7130   47.1330    5.6100 N.am   45  GLY45      -0.1954
     75  CA        -5.3260   47.2550    5.2010 C.3    45  GLY45       0.1869
     76  C         -5.2590   47.1650    3.6920 C.2    45  GLY45       0.2309
     77  O         -4.2180   47.4100    3.0950 O.2    45  GLY45      -0.2863
     78  N        -21.2480   48.4380   10.4530 N.3    53  VAL53      -0.1245
     79  CA       -20.7460   48.0530   11.7590 C.3    53  VAL53       0.1561
     80  C        -21.9710   47.8810   12.6310 C.2    53  VAL53       0.2260
     81  O        -23.0280   48.4380   12.3520 O.2    53  VAL53      -0.2867
     82  CB       -19.7970   49.1200   12.4090 C.3    53  VAL53       0.0252
     83  CG1      -18.7140   49.5380   11.4310 C.3    53  VAL53       0.0019
     84  CG2      -20.5910   50.3320   12.8840 C.3    53  VAL53       0.0019
     85  N        -10.6720   42.9320   18.6470 N.3    81  TYR81      -0.1227
     86  CA       -10.7060   44.2810   18.1300 C.3    81  TYR81       0.1736
     87  C        -12.0500   45.0120   18.1130 C.2    81  TYR81       0.2596
     88  O        -13.0190   44.5170   17.5490 O.2    81  TYR81      -0.2718
     89  CB       -10.1850   44.2480   16.7050 C.3    81  TYR81       0.0548
     90  CG       -10.0830   45.5940   16.0660 C.ar   81  TYR81      -0.0200
     91  CD1       -9.3880   46.6200   16.6970 C.ar   81  TYR81      -0.0009
     92  CD2      -10.6410   45.8390   14.8200 C.ar   81  TYR81      -0.0009
     93  CE1       -9.2450   47.8600   16.1170 C.ar   81  TYR81       0.0417
     94  CE2      -10.5000   47.0930   14.2160 C.ar   81  TYR81       0.0417
     95  CZ        -9.7950   48.1000   14.8810 C.ar   81  TYR81       0.1957
     96  OH        -9.6260   49.3450   14.3270 O.3    81  TYR81      -0.2866
     97  N        -12.0910   46.1970   18.7140 N.am   82  THR82      -0.1939
     98  CA       -13.2840   47.0410   18.6860 C.3    82  THR82       0.2028
     99  C        -12.8260   48.4710   18.6410 C.2    82  THR82       0.2642
    100  O        -11.7600   48.8050   19.1410 O.2    82  THR82      -0.2714
    101  CB       -14.1690   46.9770   19.9240 C.3    82  THR82       0.1808
    102  OG1      -14.3370   45.6220   20.3460 O.3    82  THR82      -0.2208
    103  CG2      -15.5470   47.6130   19.5900 C.3    82  THR82       0.0379
    104  N        -13.6670   49.3190   18.0750 N.am   83  ARG83      -0.1977
    105  CA       -13.3650   50.7290   17.9490 C.3    83  ARG83       0.1597
    106  C        -14.2750   51.5940   18.8000 C.2    83  ARG83       0.2287
    107  O        -13.9430   52.7380   19.1150 O.2    83  ARG83      -0.2864
    108  CB       -13.5140   51.1380   16.4960 C.3    83  ARG83       0.0334
    109  CG       -12.4070   50.6170   15.6380 C.3    83  ARG83       0.0492
    110  CD       -12.4920   51.1760   14.2360 C.3    83  ARG83       0.2205
    111  NE       -12.4050   52.6370   14.1460 N.pl3  83  ARG83      -0.0865
    112  CZ       -11.2780   53.3380   14.2270 C.cat  83  ARG83       0.5346
    113  NH1      -10.1120   52.7270   14.4160 N.pl3  83  ARG83       0.1354
    114  NH2      -11.3100   54.6530   14.0680 N.pl3  83  ARG83       0.1354
    115  N         -6.8780   44.5560   21.8660 N.3   112  VAL112     -0.1245
    116  CA        -6.2890   45.2320   20.7230 C.3   112  VAL112      0.1561
    117  C         -6.3520   46.7570   20.7330 C.2   112  VAL112      0.2260
    118  O         -7.4120   47.3590   20.5680 O.2   112  VAL112     -0.2867
    119  CB        -6.8920   44.6990   19.4030 C.3   112  VAL112      0.0252
    120  CG1       -6.1760   45.3000   18.2180 C.3   112  VAL112      0.0019
    121  CG2       -6.7580   43.1950   19.3550 C.3   112  VAL112      0.0019
    122  N         -4.1370   52.0470   17.3940 N.3   124  TYR124     -0.1241
    123  CA        -5.0980   51.7500   16.2520 C.3   124  TYR124      0.1605
    124  C         -6.5220   52.2080   16.5720 C.2   124  TYR124      0.2264
    125  O         -7.3810   52.3490   15.6920 O.2   124  TYR124     -0.2867
    126  CB        -5.4120   50.2600   15.9860 C.3   124  TYR124      0.0534
    127  CG        -4.3690   49.2060   15.7340 C.ar  124  TYR124     -0.0201
    128  CD1       -4.5860   47.9140   16.2190 C.ar  124  TYR124     -0.0009
    129  CD2       -3.2260   49.4410   14.9710 C.ar  124  TYR124     -0.0009
    130  CE1       -3.7030   46.8810   15.9640 C.ar  124  TYR124      0.0417
    131  CE2       -2.3180   48.3960   14.7030 C.ar  124  TYR124      0.0417
    132  CZ        -2.5670   47.1180   15.2140 C.ar  124  TYR124      0.1957
    133  OH        -1.6770   46.0750   15.0230 O.3   124  TYR124     -0.2866
    134  N         -2.0860   40.3280    8.7300 N.3   228  VAL228     -0.1231
    135  CA        -3.1390   40.9430    9.5050 C.3   228  VAL228      0.1692
    136  C         -3.9940   39.7810    9.9660 C.2   228  VAL228      0.2592
    137  O         -4.2190   38.8480    9.2060 O.2   228  VAL228     -0.2718
    138  CB        -3.8910   41.9050    8.6470 C.3   228  VAL228      0.0266
    139  CG1       -4.8410   42.7060    9.4750 C.3   228  VAL228      0.0020
    140  CG2       -2.8950   42.8100    7.9730 C.3   228  VAL228      0.0020
    141  N         -4.4180   39.8060   11.2220 N.am  229  GLY229     -0.1957
    142  CA        -5.2050   38.7050   11.7420 C.3   229  GLY229      0.1869
    143  C         -4.4100   37.7140   12.5900 C.2   229  GLY229      0.2309
    144  O         -4.9950   36.8020   13.1920 O.2   229  GLY229     -0.2863
    145  N         -3.0070   37.9410   15.5770 N.3   231  GLY231     -0.1210
    146  CA        -3.3920   37.8620   16.9800 C.3   231  GLY231      0.1956
    147  C         -4.7560   37.2500   17.2580 C.2   231  GLY231      0.2611
    148  O         -5.0140   36.7780   18.3730 O.2   231  GLY231     -0.2717
    149  N         -5.6450   37.2570   16.2610 N.am  232  ASP232     -0.1973
    150  CA        -6.9670   36.6650   16.4430 C.3   232  ASP232      0.1709
    151  C         -6.7520   35.1520   16.4000 C.2   232  ASP232      0.2293
    152  O         -7.2640   34.4010   17.2310 O.2   232  ASP232     -0.2864
    153  CB        -7.9160   37.1060   15.3230 C.3   232  ASP232      0.1436
    154  CG        -8.0190   38.6190   15.1990 C.2   232  ASP232      0.3671
    155  OD1       -7.9120   39.3200   16.2310 O.co2 232  ASP232     -0.2456
    156  OD2       -8.2270   39.1020   14.0680 O.co2 232  ASP232     -0.2456
@<TRIPOS>BOND
     1    56    54   am
     2    54    55    2
     3    54    53    1
     4    53    50    1
     5    77    76    2
     6    49    50    1
     7    76    75    1
     8    50    51    1
     9    60    59    2
    10    40    41    2
    11    40    39    1
    12    51    52    2
    13    51    57   am
    14    75    74    1
    15    65    66   ar
    16    65    63   ar
    17    66    64   ar
    18     9    10    2
    19     9     8    1
    20    57    58    1
    21    74    69   am
    22    63    62   ar
    23    70    69    2
    24    69    68    1
    25    59    58    1
    26    59    67   am
    27    39    42    1
    28    39    38    1
    29    64    62   ar
    30    68    67    1
    31    68    71    1
    32    11     8    1
    33    11    13    1
    34    11    12    1
    35    62    61    1
    36    58    61    1
    37     8     7    1
    38    42    43    1
    39    44    43   ar
    40    44    46   ar
    41    43    45   ar
    42    71    73    1
    43    71    72    1
    44    46    48   ar
    45   140   138    1
    46    45    47   ar
    47    48    47   ar
    48   138   139    1
    49   138   135    1
    50   134   135    1
    51   137   136    2
    52   135   136    1
    53    14    15    1
    54    18    19    1
    55    18    20    1
    56    18    15    1
    57   136   141   am
    58    78    79    1
    59    15    16    1
    60    33    34    2
    61    33    32    1
    62    17    16    2
    63    37    35    1
    64   141   142    1
    65    83    82    1
    66    16    21   am
    67    35    32    1
    68    35    36    1
    69   142   143    1
    70    79    82    1
    71    79    80    1
    72    32    31    1
    73     3     4    2
    74     3     2    1
    75    81    80    2
    76    82    84    1
    77     6     5    1
    78   143   144    2
    79     5     2    1
    80    21    22    1
    81    31    27   am
    82     2     1    1
    83    24    23    2
    84    23    22    1
    85   114   112    1
    86   156   154   ar
    87    27    28    2
    88    27    26    1
    89   111   112    2
    90   111   110    1
    91    94    92   ar
    92    94    95   ar
    93   112   113    1
    94   110   109    1
    95    96    95    1
    96   131   129   ar
    97   131   132   ar
    98    92    90   ar
    99    95    93   ar
   100   129   127   ar
   101    25    26    1
   102   133   132    1
   103   154   153    1
   104   154   155   ar
   105   132   130   ar
   106   153   150    1
   107    26    29    1
   108    30    29    1
   109   145   146    1
   110   109   108    1
   111   125   124    2
   112   127   126    1
   113   127   128   ar
   114   130   128   ar
   115   126   123    1
   116    90    91   ar
   117    90    89    1
   118    93    91   ar
   119   123   124    1
   120   123   122    1
   121   149   150    1
   122   149   147   am
   123   151   150    1
   124   151   152    2
   125   108   105    1
   126    89    86    1
   127   146   147    1
   128   147   148    2
   129    88    87    2
   130   105   104    1
   131   105   106    1
   132   104    99   am
   133    87    86    1
   134    87    97   am
   135    86    85    1
   136   120   119    1
   137    99    98    1
   138    99   100    2
   139    98    97    1
   140    98   101    1
   141   106   107    2
   142   121   119    1
   143   119   116    1
   144   103   101    1
   145   101   102    1
   146   118   117    2
   147   116   117    1
   148   116   115    1
