@<TRIPOS>MOLECULE
tmp/1ygpA00.pdb
 159 151 0 0 0
SMALL
GASTEIGER

@<TRIPOS>ATOM
      1  N         48.1640 -111.4160  -30.3780 N.3   104  LEU104     -0.1245
      2  CA        48.8020 -112.2050  -29.3370 C.3   104  LEU104      0.1561
      3  C         50.2850 -111.9680  -29.5190 C.2   104  LEU104      0.2260
      4  O         51.0170 -112.7550  -30.1240 O.2   104  LEU104     -0.2867
      5  CB        48.5340 -113.6970  -29.4890 C.3   104  LEU104      0.0270
      6  CG        47.8410 -114.5080  -28.4040 C.3   104  LEU104      0.0019
      7  CD1       48.3500 -115.9400  -28.5300 C.3   104  LEU104      0.0001
      8  CD2       48.1320 -113.9850  -27.0160 C.3   104  LEU104      0.0001
      9  N         44.3130 -113.4820  -27.3510 N.3   148  ASN148     -0.1225
     10  CA        44.0180 -114.7160  -26.6460 C.3   148  ASN148      0.1785
     11  C         44.3140 -115.9600  -27.4650 C.2   148  ASN148      0.2598
     12  O         45.3530 -116.5770  -27.2850 O.2   148  ASN148     -0.2718
     13  CB        42.5730 -114.7200  -26.2300 C.3   148  ASN148      0.1169
     14  CG        42.2190 -115.9680  -25.4460 C.2   148  ASN148      0.2627
     15  OD1       42.8990 -116.3950  -24.5140 O.2   148  ASN148     -0.2716
     16  ND2       41.0990 -116.5680  -25.8220 N.am  148  ASN148     -0.0877
     17  N         43.4770 -116.3520  -28.4150 N.am  149  GLY149     -0.1942
     18  CA        43.7220 -117.5530  -29.1890 C.3   149  GLY149      0.2014
     19  C         44.3740 -117.2300  -30.5160 C.2   149  GLY149      0.2639
     20  O         44.8460 -116.1080  -30.7680 O.2   149  GLY149     -0.2714
     21  N         44.2880 -118.2360  -31.3830 N.am  150  GLY150     -0.1954
     22  CA        44.8810 -118.2400  -32.6990 C.3   150  GLY150      0.1869
     23  C         44.5040 -117.0350  -33.5400 C.2   150  GLY150      0.2309
     24  O         45.3490 -116.5630  -34.3050 O.2   150  GLY150     -0.2863
     25  N         47.0000 -114.5920  -32.6180 N.3   153  ARG153     -0.1245
     26  CA        48.3360 -115.0440  -32.9580 C.3   153  ARG153      0.1563
     27  C         48.5350 -114.9180  -34.4660 C.2   153  ARG153      0.2260
     28  O         49.6490 -114.6140  -34.8940 O.2   153  ARG153     -0.2867
     29  CB        48.5260 -116.4990  -32.4780 C.3   153  ARG153      0.0307
     30  CG        49.9520 -117.0550  -32.6180 C.3   153  ARG153      0.0489
     31  CD        50.9660 -116.2350  -31.8430 C.3   153  ARG153      0.2205
     32  NE        52.1530 -116.0570  -32.6450 N.pl3 153  ARG153     -0.0865
     33  CZ        53.0120 -115.0490  -32.4990 C.cat 153  ARG153      0.5346
     34  NH1       52.8860 -114.0720  -31.5960 N.pl3 153  ARG153      0.1354
     35  NH2       54.0520 -115.0360  -33.3180 N.pl3 153  ARG153      0.1354
     36  N         58.7820 -118.8720  -34.1470 N.3   502  TRP502     -0.1241
     37  CA        58.5170 -120.2710  -33.9420 C.3   502  TRP502      0.1605
     38  C         59.6630 -121.2330  -34.2530 C.2   502  TRP502      0.2264
     39  O         59.6320 -122.3350  -33.6950 O.2   502  TRP502     -0.2867
     40  CB        57.2060 -120.5310  -34.7100 C.3   502  TRP502      0.0550
     41  CG        56.1090 -119.7300  -33.9930 C.ar  502  TRP502      0.0003
     42  CD1       55.4380 -118.7030  -34.6180 C.ar  502  TRP502      0.0946
     43  CD2       55.7300 -119.8630  -32.6710 C.ar  502  TRP502      0.0152
     44  NE1       54.6520 -118.1790  -33.7040 N.ar  502  TRP502     -0.2442
     45  CE2       54.7920 -118.8290  -32.5400 C.ar  502  TRP502      0.0810
     46  CE3       56.0320 -120.6730  -31.5710 C.ar  502  TRP502      0.0012
     47  CZ2       54.1550 -118.5930  -31.3190 C.ar  502  TRP502      0.0191
     48  CZ3       55.3980 -120.4370  -30.3520 C.ar  502  TRP502      0.0001
     49  CH2       54.4710 -119.4040  -30.2270 C.ar  502  TRP502      0.0015
     50  N         47.9820 -128.9670  -26.3120 N.3   587  VAL587     -0.1231
     51  CA        47.8680 -127.6500  -25.7220 C.3   587  VAL587      0.1692
     52  C         47.0280 -126.7440  -26.6310 C.2   587  VAL587      0.2592
     53  O         47.4380 -126.3520  -27.7370 O.2   587  VAL587     -0.2718
     54  CB        49.2770 -126.9980  -25.4740 C.3   587  VAL587      0.0266
     55  CG1       49.9740 -127.7790  -24.3750 C.3   587  VAL587      0.0020
     56  CG2       50.1960 -127.0480  -26.6870 C.3   587  VAL587      0.0020
     57  N         45.7920 -126.4680  -26.2030 N.am  588  LYS588     -0.1966
     58  CA        44.8960 -125.5430  -26.8790 C.3   588  LYS588      0.1728
     59  C         43.6650 -125.3240  -26.0310 C.2   588  LYS588      0.2616
     60  O         43.5540 -125.8720  -24.9340 O.2   588  LYS588     -0.2715
     61  CB        44.4440 -126.0540  -28.2380 C.3   588  LYS588      0.0311
     62  CG        43.7720 -127.4090  -28.3280 C.3   588  LYS588      0.0038
     63  CD        43.8820 -127.8730  -29.7780 C.3   588  LYS588      0.0206
     64  CE        45.3360 -128.0770  -30.1740 C.3   588  LYS588      0.1093
     65  NZ        45.4540 -128.1420  -31.6150 N.3   588  LYS588     -0.1314
     66  N         42.7420 -124.5060  -26.5290 N.am  589  ARG589     -0.1977
     67  CA        41.5210 -124.1520  -25.8400 C.3   589  ARG589      0.1597
     68  C         40.7530 -125.3930  -25.4750 C.2   589  ARG589      0.2287
     69  O         40.5770 -126.2940  -26.2940 O.2   589  ARG589     -0.2864
     70  CB        40.7010 -123.2580  -26.7550 C.3   589  ARG589      0.0334
     71  CG        39.3410 -122.7760  -26.2570 C.3   589  ARG589      0.0492
     72  CD        39.1260 -121.4290  -26.9130 C.3   589  ARG589      0.2205
     73  NE        37.9600 -121.4180  -27.7600 N.pl3 589  ARG589     -0.0865
     74  CZ        37.9440 -121.9700  -28.9700 C.cat 589  ARG589      0.5346
     75  NH1       39.0100 -122.5840  -29.4920 N.pl3 589  ARG589      0.1354
     76  NH2       36.8320 -121.8560  -29.7010 N.pl3 589  ARG589      0.1354
     77  N         37.1390 -129.8650  -29.2630 N.3   594  LYS594     -0.1245
     78  CA        38.5730 -130.0680  -29.4460 C.3   594  LYS594      0.1561
     79  C         38.9390 -131.4450  -28.9380 C.2   594  LYS594      0.2260
     80  O         40.0880 -131.8710  -29.0620 O.2   594  LYS594     -0.2867
     81  CB        39.3960 -129.0930  -28.6610 C.3   594  LYS594      0.0271
     82  CG        39.1410 -127.6750  -29.0300 C.3   594  LYS594      0.0035
     83  CD        39.8990 -127.3360  -30.2560 C.3   594  LYS594      0.0206
     84  CE        39.8120 -125.8540  -30.2720 C.3   594  LYS594      0.1093
     85  NZ        40.2520 -125.3790  -31.5560 N.3   594  LYS594     -0.1314
     86  N         48.8600 -121.1610  -19.9650 N.3   677  TYR677     -0.1227
     87  CA        49.5560 -121.3770  -21.2150 C.3   677  TYR677      0.1736
     88  C         49.3490 -120.1410  -22.0430 C.2   677  TYR677      0.2595
     89  O         48.2380 -119.7720  -22.3910 O.2   677  TYR677     -0.2718
     90  CB        48.9620 -122.6140  -21.8730 C.3   677  TYR677      0.0548
     91  CG        49.2830 -122.8490  -23.3390 C.ar  677  TYR677     -0.0200
     92  CD1       50.5110 -123.3540  -23.7640 C.ar  677  TYR677     -0.0009
     93  CD2       48.2800 -122.5600  -24.2570 C.ar  677  TYR677     -0.0009
     94  CE1       50.7210 -123.5680  -25.1240 C.ar  677  TYR677      0.0417
     95  CE2       48.4830 -122.7730  -25.6080 C.ar  677  TYR677      0.0417
     96  CZ        49.6980 -123.2780  -26.0400 C.ar  677  TYR677      0.1957
     97  OH        49.8520 -123.5220  -27.3990 O.3   677  TYR677     -0.2866
     98  N         50.4600 -119.4840  -22.2330 N.am  678  ASN678     -0.1960
     99  CA        50.5340 -118.2930  -23.0300 C.3   678  ASN678      0.1819
    100  C         51.5830 -118.5340  -24.1210 C.2   678  ASN678      0.2621
    101  O         52.0390 -119.6720  -24.2970 O.2   678  ASN678     -0.2715
    102  CB        50.9250 -117.1440  -22.1400 C.3   678  ASN678      0.1195
    103  CG        52.2440 -117.3460  -21.4210 C.2   678  ASN678      0.2630
    104  OD1       53.2570 -117.7950  -21.9710 O.2   678  ASN678     -0.2716
    105  ND2       52.2480 -117.0360  -20.1420 N.am  678  ASN678     -0.0877
    106  N         52.0610 -117.5290  -24.8620 N.am  679  VAL679     -0.1977
    107  CA        52.9710 -117.8100  -25.9590 C.3   679  VAL679      0.1596
    108  C         54.3170 -118.3100  -25.4680 C.2   679  VAL679      0.2287
    109  O         54.8430 -119.2710  -26.0230 O.2   679  VAL679     -0.2864
    110  CB        53.1130 -116.5240  -26.8270 C.3   679  VAL679      0.0276
    111  CG1       54.2660 -116.5590  -27.8300 C.3   679  VAL679      0.0022
    112  CG2       51.8460 -116.4320  -27.6490 C.3   679  VAL679      0.0022
    113  N         54.3110 -121.7710  -24.7610 N.3   682  ALA682     -0.1245
    114  CA        54.2520 -122.4830  -26.0300 C.3   682  ALA682      0.1562
    115  C         55.6070 -122.4520  -26.7280 C.2   682  ALA682      0.2260
    116  O         55.9220 -123.3900  -27.4660 O.2   682  ALA682     -0.2867
    117  CB        53.2130 -121.8500  -26.9570 C.3   682  ALA682      0.0290
    118  N         56.2910 -126.3390  -27.4690 N.3   686  ILE686     -0.1245
    119  CA        56.3450 -126.8720  -28.8200 C.3   686  ILE686      0.1561
    120  C         57.6870 -127.4900  -29.2630 C.2   686  ILE686      0.2260
    121  O         57.6270 -128.6510  -29.6860 O.2   686  ILE686     -0.2867
    122  CB        55.8520 -125.7300  -29.7400 C.3   686  ILE686      0.0252
    123  CG1       54.3460 -125.7470  -29.5660 C.3   686  ILE686      0.0019
    124  CG2       56.2650 -125.8660  -31.2030 C.3   686  ILE686      0.0019
    125  CD1       53.4980 -124.6060  -30.1450 C.3   686  ILE686      0.0001
    126  N         44.4180 -123.8100  -38.3790 N.3   704  GLY704     -0.1210
    127  CA        44.9320 -124.2850  -37.1090 C.3   704  GLY704      0.1956
    128  C         46.4240 -124.0860  -37.0770 C.2   704  GLY704      0.2613
    129  O         47.1930 -124.9800  -37.4570 O.2   704  GLY704     -0.2717
    130  N         46.8550 -122.9160  -36.6150 N.am  705  THR705     -0.1938
    131  CA        48.2670 -122.6420  -36.6870 C.3   705  THR705      0.2028
    132  C         49.1530 -123.3540  -35.6940 C.2   705  THR705      0.2643
    133  O         50.3080 -123.5300  -36.0960 O.2   705  THR705     -0.2714
    134  CB        48.5000 -121.1090  -36.6200 C.3   705  THR705      0.1808
    135  OG1       47.6200 -120.4820  -35.6870 O.3   705  THR705     -0.2208
    136  CG2       48.2550 -120.5350  -37.9940 C.3   705  THR705      0.0379
    137  N         48.7710 -123.8740  -34.5090 N.am  706  SER706     -0.1935
    138  CA        49.8110 -124.4720  -33.6690 C.3   706  SER706      0.2055
    139  C         50.3420 -125.7680  -34.2570 C.2   706  SER706      0.2643
    140  O         51.5080 -126.1190  -34.0500 O.2   706  SER706     -0.2714
    141  CB        49.3210 -124.7520  -32.2660 C.3   706  SER706      0.2130
    142  OG        48.1090 -125.4780  -32.2520 O.3   706  SER706     -0.2179
    143  N         49.5000 -126.4140  -35.0830 N.am  707  ASN707     -0.1971
    144  CA        49.8220 -127.6210  -35.8450 C.3   707  ASN707      0.1688
    145  C         51.0910 -127.3560  -36.6240 C.2   707  ASN707      0.2292
    146  O         52.0540 -128.1030  -36.5280 O.2   707  ASN707     -0.2864
    147  CB        48.7490 -127.9680  -36.8730 C.3   707  ASN707      0.1181
    148  CG        47.3360 -128.1940  -36.3620 C.2   707  ASN707      0.2629
    149  OD1       46.9330 -127.7070  -35.3030 O.2   707  ASN707     -0.2716
    150  ND2       46.5140 -129.0270  -36.9730 N.am  707  ASN707     -0.0877
    151  N         53.2730 -124.9760  -36.1340 N.3   709  LYS709     -0.1245
    152  CA        54.3460 -124.7130  -35.1710 C.3   709  LYS709      0.1561
    153  C         54.9760 -126.0030  -34.6980 C.2   709  LYS709      0.2260
    154  O         56.1810 -126.0260  -34.4640 O.2   709  LYS709     -0.2867
    155  CB        53.8460 -123.9640  -33.9230 C.3   709  LYS709      0.0271
    156  CG        53.3420 -122.5590  -34.1910 C.3   709  LYS709      0.0035
    157  CD        52.6320 -122.0390  -32.9740 C.3   709  LYS709      0.0206
    158  CE        51.8110 -120.8370  -33.3750 C.3   709  LYS709      0.1093
    159  NZ        51.1790 -120.3850  -32.1460 N.3   709  LYS709     -0.1314
@<TRIPOS>BOND
     1   126   127    1
     2   136   134    1
     3   129   128    2
     4   127   128    1
     5   128   130   am
     6   150   148   am
     7   147   148    1
     8   147   144    1
     9   131   134    1
    10   131   130    1
    11   131   132    1
    12   145   146    2
    13   145   144    1
    14   134   135    1
    15   148   149    2
    16   151   152    1
    17   133   132    2
    18   144   143    1
    19   132   137   am
    20   152   153    1
    21   152   155    1
    22   143   139   am
    23    28    27    2
    24    40    41    1
    25    40    37    1
    26   153   154    2
    27    42    41   ar
    28    42    44   ar
    29   137   138    1
    30    27    26    1
    31    24    23    2
    32   139   140    2
    33   139   138    1
    34    38    37    1
    35    38    39    2
    36   156   155    1
    37   156   157    1
    38    36    37    1
    39    41    43   ar
    40    44    45   ar
    41   138   141    1
    42    23    22    1
    43   158   157    1
    44   158   159    1
    45    35    33    1
    46    26    25    1
    47    26    29    1
    48    22    21    1
    49    43    45   ar
    50    43    46   ar
    51    32    33    2
    52    32    31    1
    53    30    29    1
    54    30    31    1
    55    45    47   ar
    56    33    34    1
    57   141   142    1
    58    65    64    1
    59    46    48   ar
    60    85    84    1
    61    21    19   am
    62    47    49   ar
    63   124   122    1
    64    20    19    2
    65    19    18    1
    66     1     2    1
    67    48    49   ar
    68    84    83    1
    69    83    82    1
    70    64    63    1
    71   125   123    1
    72     4     3    2
    73    63    62    1
    74   122   123    1
    75   122   119    1
    76    76    74    1
    77   121   120    2
    78     3     2    1
    79    75    74    1
    80     5     2    1
    81     5     6    1
    82    78    77    1
    83    78    79    1
    84    78    81    1
    85   120   119    1
    86    18    17    1
    87    80    79    2
    88    82    81    1
    89    74    73    2
    90   119   118    1
    91     7     6    1
    92    17    11   am
    93     6     8    1
    94    62    61    1
    95    61    58    1
    96   111   110    1
    97    73    72    1
    98    53    52    2
    99   112   110    1
   100   116   115    2
   101    11    12    2
   102    11    10    1
   103    97    96    1
   104     9    10    1
   105   117   114    1
   106    72    71    1
   107    58    57    1
   108    58    59    1
   109   110   107    1
   110    70    71    1
   111    70    67    1
   112   115   114    1
   113    56    54    1
   114    10    13    1
   115    52    57   am
   116    52    51    1
   117    66    59   am
   118    66    67    1
   119    50    51    1
   120    69    68    2
   121    13    14    1
   122    96    95   ar
   123    96    94   ar
   124    59    60    2
   125   114   113    1
   126   109   108    2
   127   107   108    1
   128   107   106    1
   129    67    68    1
   130    16    14   am
   131    51    54    1
   132    95    93   ar
   133    54    55    1
   134    14    15    2
   135    94    92   ar
   136   106   100   am
   137   101   100    2
   138    93    91   ar
   139   100    99    1
   140    92    91   ar
   141    91    90    1
   142    99    98    1
   143    99   102    1
   144    89    88    2
   145    98    88   am
   146   102   103    1
   147    88    87    1
   148   104   103    2
   149    90    87    1
   150   103   105   am
   151    87    86    1
