@<TRIPOS>MOLECULE
tmp/1ygrA00.pdb
 172 166 0 0 0
SMALL
GASTEIGER

@<TRIPOS>ATOM
      1  N          3.9890  -14.6900   51.4390 N.3    38  ARG38      -0.1245
      2  CA         5.3710  -14.5740   51.8770 C.3    38  ARG38       0.1563
      3  C          6.1590  -13.9990   50.7020 C.2    38  ARG38       0.2260
      4  O          6.5020  -12.8230   50.7050 O.2    38  ARG38      -0.2867
      5  CB         5.9330  -15.9620   52.2200 C.3    38  ARG38       0.0307
      6  CG         5.3120  -16.6570   53.4260 C.3    38  ARG38       0.0489
      7  CD         5.8820  -16.0870   54.7270 C.3    38  ARG38       0.2205
      8  NE         7.0650  -16.7870   55.2630 N.pl3  38  ARG38      -0.0865
      9  CZ         8.1950  -17.0710   54.6000 C.cat  38  ARG38       0.5346
     10  NH1        8.3650  -16.7360   53.3150 N.pl3  38  ARG38       0.1354
     11  NH2        9.1830  -17.6870   55.2530 N.pl3  38  ARG38       0.1354
     12  N         22.6290  -13.0620   54.2200 N.3    58  ARG58      -0.1231
     13  CA        22.6010  -13.2030   55.6680 C.3    58  ARG58       0.1694
     14  C         21.6480  -14.3050   56.1070 C.2    58  ARG58       0.2592
     15  O         21.8410  -14.9360   57.1460 O.2    58  ARG58      -0.2718
     16  CB        22.2010  -11.8820   56.3170 C.3    58  ARG58       0.0321
     17  CG        23.1470  -11.4490   57.3900 C.3    58  ARG58       0.0489
     18  CD        22.6160  -10.2700   58.1440 C.3    58  ARG58       0.2205
     19  NE        23.4110  -10.0180   59.3400 N.pl3  58  ARG58      -0.0865
     20  CZ        24.6230   -9.4840   59.3310 C.cat  58  ARG58       0.5346
     21  NH1       25.1840   -9.1360   58.1870 N.pl3  58  ARG58       0.1354
     22  NH2       25.2820   -9.3080   60.4630 N.pl3  58  ARG58       0.1354
     23  N         20.6100  -14.5320   55.3160 N.am   59  TYR59      -0.1962
     24  CA        19.6430  -15.5710   55.6270 C.3    59  TYR59       0.1771
     25  C         19.2270  -16.1570   54.3020 C.2    59  TYR59       0.2619
     26  O         18.8750  -15.4270   53.3830 O.2    59  TYR59      -0.2715
     27  CB        18.4230  -14.9950   56.3440 C.3    59  TYR59       0.0574
     28  CG        18.7730  -14.1080   57.5120 C.ar   59  TYR59      -0.0198
     29  CD1       18.5530  -12.7380   57.4630 C.ar   59  TYR59      -0.0009
     30  CD2       19.3260  -14.6360   58.6670 C.ar   59  TYR59      -0.0009
     31  CE1       18.8760  -11.9180   58.5400 C.ar   59  TYR59       0.0417
     32  CE2       19.6510  -13.8230   59.7460 C.ar   59  TYR59       0.0417
     33  CZ        19.4240  -12.4710   59.6770 C.ar   59  TYR59       0.1957
     34  OH        19.7450  -11.6740   60.7440 O.3    59  TYR59      -0.2866
     35  N         19.2870  -17.4770   54.2000 N.am   60  VAL60      -0.1963
     36  CA        18.9240  -18.1730   52.9760 C.3    60  VAL60       0.1727
     37  C         17.4060  -18.0650   52.7830 C.2    60  VAL60       0.2616
     38  O         16.8610  -18.4270   51.7410 O.2    60  VAL60      -0.2715
     39  CB        19.3710  -19.6410   53.0730 C.3    60  VAL60       0.0290
     40  CG1       18.6770  -20.3050   54.2510 C.3    60  VAL60       0.0023
     41  CG2       19.1070  -20.3680   51.7600 C.3    60  VAL60       0.0023
     42  N         16.7450  -17.5320   53.8060 N.am   61  ASP61      -0.1957
     43  CA        15.3010  -17.3400   53.8070 C.3    61  ASP61       0.1840
     44  C         14.9090  -16.0970   52.9860 C.2    61  ASP61       0.2621
     45  O         13.8820  -16.0880   52.3120 O.2    61  ASP61      -0.2715
     46  CB        14.8230  -17.1910   55.2630 C.3    61  ASP61       0.1450
     47  CG        13.3040  -17.1900   55.3920 C.2    61  ASP61       0.3671
     48  OD1       12.6510  -16.4670   54.6130 O.co2  61  ASP61      -0.2456
     49  OD2       12.7590  -17.8960   56.2720 O.co2  61  ASP61      -0.2456
     50  N         15.7490  -15.0640   53.0400 N.am   62  ILE62      -0.1977
     51  CA        15.5150  -13.7920   52.3440 C.3    62  ILE62       0.1596
     52  C         16.4300  -13.5250   51.1400 C.2    62  ILE62       0.2287
     53  O         17.5660  -13.0940   51.3230 O.2    62  ILE62      -0.2864
     54  CB        15.7100  -12.6040   53.3120 C.3    62  ILE62       0.0276
     55  CG1       15.1050  -12.9220   54.6840 C.3    62  ILE62       0.0022
     56  CG2       15.0840  -11.3520   52.7270 C.3    62  ILE62       0.0022
     57  CD1       13.5990  -12.8940   54.7520 C.3    62  ILE62       0.0001
     58  N         23.5900  -12.2300   69.2390 N.3   133  ARG133     -0.1231
     59  CA        23.7700  -12.7260   67.8710 C.3   133  ARG133      0.1694
     60  C         24.0760  -11.5290   66.9920 C.2   133  ARG133      0.2592
     61  O         23.6340  -10.4210   67.3010 O.2   133  ARG133     -0.2718
     62  CB        22.5010  -13.3950   67.3820 C.3   133  ARG133      0.0321
     63  CG        21.8340  -14.2220   68.4460 C.3   133  ARG133      0.0489
     64  CD        21.0450  -15.3860   67.8640 C.3   133  ARG133      0.2205
     65  NE        21.8610  -16.3070   67.0670 N.pl3 133  ARG133     -0.0865
     66  CZ        21.8220  -16.3750   65.7320 C.cat 133  ARG133      0.5346
     67  NH1       21.0060  -15.5690   65.0460 N.pl3 133  ARG133      0.1354
     68  NH2       22.5830  -17.2530   65.0760 N.pl3 133  ARG133      0.1354
     69  N         24.8330  -11.7330   65.9130 N.am  134  ASN134     -0.1960
     70  CA        25.1760  -10.6220   65.0270 C.3   134  ASN134      0.1819
     71  C         24.0140  -10.3870   64.0920 C.2   134  ASN134      0.2621
     72  O         23.5170  -11.3240   63.4800 O.2   134  ASN134     -0.2715
     73  CB        26.4210  -10.9370   64.2010 C.3   134  ASN134      0.1195
     74  CG        27.1450   -9.6820   63.7430 C.2   134  ASN134      0.2630
     75  OD1       26.5620   -8.6020   63.7080 O.2   134  ASN134     -0.2716
     76  ND2       28.4190   -9.8210   63.3840 N.am  134  ASN134     -0.0877
     77  N         23.5680   -9.1440   63.9850 N.am  135  LYS135     -0.1977
     78  CA        22.4590   -8.8280   63.1090 C.3   135  LYS135      0.1596
     79  C         22.9190   -7.8570   62.0260 C.2   135  LYS135      0.2287
     80  O         22.1980   -7.5960   61.0770 O.2   135  LYS135     -0.2864
     81  CB        21.3050   -8.2340   63.9260 C.3   135  LYS135      0.0298
     82  CG        20.6980   -9.1940   64.9580 C.3   135  LYS135      0.0038
     83  CD        20.4180  -10.5560   64.3180 C.3   135  LYS135      0.0206
     84  CE        19.7100  -11.5490   65.2330 C.3   135  LYS135      0.1093
     85  NZ        19.8030  -12.9230   64.6420 N.3   135  LYS135     -0.1314
     86  N         13.9740   -6.6200   66.9080 N.3   194  ASP194     -0.1225
     87  CA        13.9180   -7.5290   65.7530 C.3   194  ASP194      0.1805
     88  C         12.6480   -8.3810   65.8090 C.2   194  ASP194      0.2597
     89  O         12.3760   -9.0280   66.8210 O.2   194  ASP194     -0.2718
     90  CB        15.1650   -8.4380   65.7340 C.3   194  ASP194      0.1424
     91  CG        15.1720   -9.4180   64.5610 C.2   194  ASP194      0.3668
     92  OD1       14.3270   -9.2560   63.6670 O.co2 194  ASP194     -0.2456
     93  OD2       16.0220  -10.3410   64.5250 O.co2 194  ASP194     -0.2456
     94  N         11.8860   -8.3940   64.7170 N.am  195  HIS195     -0.1975
     95  CA        10.6280   -9.1330   64.6530 C.3   195  HIS195      0.1656
     96  C          9.6030   -8.4460   65.5470 C.2   195  HIS195      0.2291
     97  O          8.4650   -8.8780   65.6260 O.2   195  HIS195     -0.2864
     98  CB        10.7840  -10.5780   65.1350 C.3   195  HIS195      0.0771
     99  CG        11.6690  -11.4240   64.2780 C.ar  195  HIS195      0.0820
    100  ND1       13.0420  -11.4380   64.4050 N.ar  195  HIS195     -0.2267
    101  CD2       11.3750  -12.3010   63.2900 C.ar  195  HIS195      0.1154
    102  CE1       13.5550  -12.2870   63.5320 C.ar  195  HIS195      0.1986
    103  NE2       12.5640  -12.8240   62.8430 N.ar  195  HIS195     -0.2212
    104  N         18.1280   -3.2060   57.6030 N.3   226  SER226     -0.1202
    105  CA        18.0240   -3.7140   58.9580 C.3   226  SER226      0.2020
    106  C         18.8970   -4.9670   58.9790 C.2   226  SER226      0.2619
    107  O         20.0440   -4.9390   58.5260 O.2   226  SER226     -0.2717
    108  CB        16.5710   -4.0660   59.2990 C.3   226  SER226      0.2103
    109  OG        16.0930   -5.1460   58.5190 O.3   226  SER226     -0.2182
    110  N         18.3540   -6.0690   59.4810 N.am  227  SER227     -0.1937
    111  CA        19.1050   -7.3100   59.5330 C.3   227  SER227      0.2055
    112  C         18.9230   -8.1110   58.2350 C.2   227  SER227      0.2643
    113  O         19.8950   -8.4730   57.5750 O.2   227  SER227     -0.2714
    114  CB        18.6540   -8.1260   60.7420 C.3   227  SER227      0.2130
    115  OG        19.5290   -9.2110   60.9820 O.3   227  SER227     -0.2179
    116  N         17.6810   -8.3900   57.8650 N.am  228  ALA228     -0.1963
    117  CA        17.4230   -9.1280   56.6390 C.3   228  ALA228      0.1728
    118  C         16.9980   -8.1360   55.5620 C.2   228  ALA228      0.2617
    119  O         17.0470   -8.4260   54.3660 O.2   228  ALA228     -0.2715
    120  CB        16.3480  -10.1560   56.8700 C.3   228  ALA228      0.0334
    121  N         16.5870   -6.9540   56.0040 N.am  229  GLY229     -0.1940
    122  CA        16.1820   -5.9150   55.0840 C.3   229  GLY229      0.2014
    123  C         14.7140   -5.9470   54.7360 C.2   229  GLY229      0.2639
    124  O         14.2350   -5.0860   54.0170 O.2   229  GLY229     -0.2714
    125  N         13.9890   -6.9220   55.2540 N.am  230  VAL230     -0.1963
    126  CA        12.5820   -7.0180   54.9410 C.3   230  VAL230      0.1727
    127  C         11.6140   -6.5530   56.0380 C.2   230  VAL230      0.2617
    128  O         10.6990   -5.7710   55.7690 O.2   230  VAL230     -0.2715
    129  CB        12.2420   -8.4530   54.5320 C.3   230  VAL230      0.0290
    130  CG1       13.0980   -8.8550   53.3530 C.3   230  VAL230      0.0023
    131  CG2       12.4650   -9.3960   55.6890 C.3   230  VAL230      0.0023
    132  N         11.8240   -7.0190   57.2670 N.am  231  GLY231     -0.1940
    133  CA        10.9490   -6.6740   58.3830 C.3   231  GLY231      0.2014
    134  C         10.8190   -5.2300   58.8530 C.2   231  GLY231      0.2638
    135  O          9.8820   -4.5310   58.4780 O.2   231  GLY231     -0.2714
    136  N         11.7390   -4.7820   59.6990 N.am  232  ARG232     -0.1977
    137  CA        11.6830   -3.4310   60.2170 C.3   232  ARG232      0.1597
    138  C         11.7730   -2.4390   59.0970 C.2   232  ARG232      0.2287
    139  O         11.0730   -1.4400   59.1110 O.2   232  ARG232     -0.2864
    140  CB        12.8030   -3.2100   61.2290 C.3   232  ARG232      0.0334
    141  CG        12.5330   -3.8770   62.5630 C.3   232  ARG232      0.0492
    142  CD        13.7700   -3.9750   63.4260 C.3   232  ARG232      0.2205
    143  NE        14.6880   -5.0120   62.9650 N.pl3 232  ARG232     -0.0865
    144  CZ        15.8190   -5.3340   63.5820 C.cat 232  ARG232      0.5346
    145  NH1       16.1770   -4.7060   64.6890 N.pl3 232  ARG232      0.1354
    146  NH2       16.6020   -6.2730   63.0860 N.pl3 232  ARG232      0.1354
    147  N          8.6540  -11.3160   52.1090 N.3   266  LEU266     -0.1245
    148  CA         8.4010  -11.1440   53.5080 C.3   266  LEU266      0.1561
    149  C          8.4640   -9.7100   54.0260 C.2   266  LEU266      0.2260
    150  O          8.4710   -9.5070   55.2350 O.2   266  LEU266     -0.2867
    151  CB         9.3620  -12.0310   54.2670 C.3   266  LEU266      0.0270
    152  CG         8.8200  -12.6100   55.5600 C.3   266  LEU266      0.0019
    153  CD1        7.5300  -13.3340   55.2670 C.3   266  LEU266      0.0001
    154  CD2        9.8670  -13.5420   56.1790 C.3   266  LEU266      0.0001
    155  N          7.2090   -8.3630   57.7990 N.3   268  GLN268     -0.1245
    156  CA         7.0950   -9.7370   58.2890 C.3   268  GLN268      0.1566
    157  C          6.2390  -10.0470   59.5250 C.2   268  GLN268      0.2260
    158  O          6.1150  -11.2130   59.8980 O.2   268  GLN268     -0.2867
    159  CB         8.4910  -10.2920   58.5460 C.3   268  GLN268      0.0367
    160  CG         9.1140   -9.6850   59.7660 C.3   268  GLN268      0.0905
    161  CD        10.0090  -10.6460   60.4910 C.2   268  GLN268      0.2608
    162  OE1        9.7130  -11.8370   60.5780 O.2   268  GLN268     -0.2717
    163  NE2       11.1050  -10.1340   61.0380 N.am  268  GLN268     -0.0878
    164  N          3.7380   -5.4510   63.1890 N.3   272  GLN272     -0.1245
    165  CA         4.2680   -4.3640   62.3820 C.3   272  GLN272      0.1566
    166  C          3.1800   -3.9140   61.4180 C.2   272  GLN272      0.2260
    167  O          3.0730   -2.7380   61.0800 O.2   272  GLN272     -0.2867
    168  CB         5.5090   -4.8530   61.6460 C.3   272  GLN272      0.0367
    169  CG         6.4620   -5.5590   62.6000 C.3   272  GLN272      0.0905
    170  CD         7.7100   -6.0730   61.9370 C.2   272  GLN272      0.2608
    171  OE1        7.6690   -6.6310   60.8320 O.2   272  GLN272     -0.2717
    172  NE2        8.8380   -5.9040   62.6170 N.am  272  GLN272     -0.0878
@<TRIPOS>BOND
     1     3     4    2
     2     3     2    1
     3    52    53    2
     4    52    51    1
     5     1     2    1
     6    38    37    2
     7    41    39    1
     8     2     5    1
     9   147   148    1
    10     5     6    1
    11    45    44    2
    12    51    50    1
    13    51    54    1
    14    56    54    1
    15    37    36    1
    16    37    42   am
    17    36    39    1
    18    36    35    1
    19    44    50   am
    20    44    43    1
    21    39    40    1
    22    54    55    1
    23    10     9    1
    24   130   129    1
    25    26    25    2
    26     6     7    1
    27   148   149    1
    28   148   151    1
    29    42    43    1
    30    43    46    1
    31   124   123    2
    32   149   150    2
    33    35    25   am
    34    12    13    1
    35   151   152    1
    36    25    24    1
    37   119   118    2
    38   129   126    1
    39   129   131    1
    40     9    11    1
    41     9     8    2
    42    48    47   ar
    43    55    57    1
    44     7     8    1
    45   123   122    1
    46   123   125   am
    47   126   125    1
    48   126   127    1
    49   122   121    1
    50    46    47    1
    51   153   152    1
    52    23    24    1
    53    23    14   am
    54    47    49   ar
    55   152   154    1
    56   118   121   am
    57   118   117    1
    58    24    27    1
    59    13    14    1
    60    13    16    1
    61   128   127    2
    62   127   132   am
    63    14    15    2
    64    16    17    1
    65    27    28    1
    66   117   120    1
    67   117   116    1
    68   132   133    1
    69    17    18    1
    70    29    28   ar
    71    29    31   ar
    72    28    30   ar
    73   113   112    2
    74   104   105    1
    75   155   156    1
    76   116   112   am
    77    18    19    1
    78    21    20    1
    79   112   111    1
    80   156   159    1
    81   156   157    1
    82   133   134    1
    83   135   134    2
    84   109   108    1
    85   107   106    2
    86    31    33   ar
    87   159   160    1
    88    30    32   ar
    89   134   136   am
    90   105   106    1
    91   105   108    1
    92   106   110   am
    93   138   139    2
    94   138   137    1
    95    20    19    2
    96    20    22    1
    97   110   111    1
    98   157   158    2
    99   111   114    1
   100    33    32   ar
   101    33    34    1
   102   136   137    1
   103   160   161    1
   104   137   140    1
   105   161   162    2
   106   161   163   am
   107   114   115    1
   108   171   170    2
   109    80    79    2
   110   167   166    2
   111   140   141    1
   112   166   165    1
   113   168   165    1
   114   168   169    1
   115   170   169    1
   116   170   172   am
   117    79    78    1
   118   165   164    1
   119   141   142    1
   120   103   101   ar
   121   103   102   ar
   122   143   142    1
   123   143   144    2
   124   146   144    1
   125    78    81    1
   126    78    77    1
   127   101    99   ar
   128    76    74   am
   129    72    71    2
   130   102   100   ar
   131   144   145    1
   132    92    91   ar
   133    75    74    2
   134    74    73    1
   135    81    82    1
   136    77    71   am
   137    71    70    1
   138    73    70    1
   139    99   100   ar
   140    99    98    1
   141    83    82    1
   142    83    84    1
   143    93    91   ar
   144    91    90    1
   145    85    84    1
   146    95    94    1
   147    95    98    1
   148    95    96    1
   149    94    88   am
   150    70    69    1
   151    67    66    1
   152    68    66    1
   153    96    97    2
   154    66    65    2
   155    90    87    1
   156    87    88    1
   157    87    86    1
   158    88    89    2
   159    69    60   am
   160    60    61    2
   161    60    59    1
   162    65    64    1
   163    62    59    1
   164    62    63    1
   165    64    63    1
   166    59    58    1
