@<TRIPOS>MOLECULE
tmp/1yguB00.pdb
 164 157 0 0 0
SMALL
GASTEIGER

@<TRIPOS>ATOM
      1  N         -8.5600   48.8930  124.1380 N.3    37  ARG37      -0.1245
      2  CA        -9.7250   48.7230  125.0180 C.3    37  ARG37       0.1563
      3  C        -10.8500   48.2170  124.1250 C.2    37  ARG37       0.2260
      4  O        -11.3690   47.1150  124.2980 O.2    37  ARG37      -0.2867
      5  CB       -10.1460   50.0900  125.5860 C.3    37  ARG37       0.0307
      6  CG       -10.0420   50.2900  127.0990 C.3    37  ARG37       0.0489
      7  CD       -11.4070   50.2140  127.7760 C.3    37  ARG37       0.2205
      8  NE       -12.4320   50.9270  127.0140 N.pl3  37  ARG37      -0.0865
      9  CZ       -13.7160   50.9930  127.3670 C.cat  37  ARG37       0.5346
     10  NH1      -14.1220   50.3870  128.4790 N.pl3  37  ARG37       0.1354
     11  NH2      -14.5950   51.6440  126.6040 N.pl3  37  ARG37       0.1354
     12  N        -25.0600   47.1940  132.8720 N.3    57  ARG57      -0.1231
     13  CA       -24.6460   47.2220  134.2740 C.3    57  ARG57       0.1694
     14  C        -23.6080   48.3440  134.4620 C.2    57  ARG57       0.2592
     15  O        -23.5620   48.9980  135.5120 O.2    57  ARG57      -0.2718
     16  CB       -24.0500   45.8650  134.6630 C.3    57  ARG57       0.0321
     17  CG       -24.4790   45.3560  136.0130 C.3    57  ARG57       0.0489
     18  CD       -23.7370   44.0880  136.3710 C.3    57  ARG57       0.2205
     19  NE       -24.2140   43.5160  137.6260 N.pl3  57  ARG57      -0.0865
     20  CZ       -25.4360   43.0170  137.7920 C.cat  57  ARG57       0.5346
     21  NH1      -26.2910   43.0270  136.7790 N.pl3  57  ARG57       0.1354
     22  NH2      -25.8060   42.5010  138.9580 N.pl3  57  ARG57       0.1354
     23  N        -22.7970   48.5550  133.4210 N.am   58  TYR58      -0.1962
     24  CA       -21.7540   49.5720  133.3850 C.3    58  TYR58       0.1771
     25  C        -21.7830   50.1070  131.9830 C.2    58  TYR58       0.2619
     26  O        -21.8350   49.3220  131.0510 O.2    58  TYR58      -0.2715
     27  CB       -20.3930   48.9380  133.6010 C.3    58  TYR58       0.0574
     28  CG       -20.3620   47.9080  134.6990 C.ar   58  TYR58      -0.0198
     29  CD1      -20.4630   48.2810  136.0430 C.ar   58  TYR58      -0.0009
     30  CD2      -20.2380   46.5580  134.3970 C.ar   58  TYR58      -0.0009
     31  CE1      -20.4410   47.3300  137.0480 C.ar   58  TYR58       0.0417
     32  CE2      -20.2160   45.6020  135.3950 C.ar   58  TYR58       0.0417
     33  CZ       -20.3180   45.9910  136.7170 C.ar   58  TYR58       0.1957
     34  OH       -20.3060   45.0360  137.7040 O.3    58  TYR58      -0.2866
     35  N        -21.7470   51.4250  131.8190 N.am   59  VAL59      -0.1963
     36  CA       -21.7580   52.0230  130.4750 C.3    59  VAL59       0.1727
     37  C        -20.3520   51.9310  129.8820 C.2    59  VAL59       0.2616
     38  O        -20.1130   52.2690  128.7260 O.2    59  VAL59      -0.2715
     39  CB       -22.1880   53.5180  130.5070 C.3    59  VAL59       0.0290
     40  CG1      -21.1380   54.3460  131.2450 C.3    59  VAL59       0.0023
     41  CG2      -22.3930   54.0390  129.0770 C.3    59  VAL59       0.0023
     42  N        -19.4290   51.4660  130.7090 N.am   60  ASP60      -0.1957
     43  CA       -18.0460   51.3020  130.3230 C.3    60  ASP60       0.1840
     44  C        -17.9510   50.1660  129.2980 C.2    60  ASP60       0.2621
     45  O        -17.1210   50.2040  128.3900 O.2    60  ASP60      -0.2715
     46  CB       -17.2330   50.9660  131.5800 C.3    60  ASP60       0.1450
     47  CG       -15.7430   51.2180  131.4070 C.2    60  ASP60       0.3671
     48  OD1      -15.3740   52.3810  131.0940 O.co2  60  ASP60      -0.2456
     49  OD2      -14.9450   50.2590  131.5920 O.co2  60  ASP60      -0.2456
     50  N        -18.8220   49.1640  129.4500 N.am   61  ILE61      -0.1977
     51  CA       -18.8560   47.9860  128.5740 C.3    61  ILE61       0.1596
     52  C        -20.1570   47.8860  127.7670 C.2    61  ILE61       0.2287
     53  O        -21.2360   47.6910  128.3180 O.2    61  ILE61      -0.2864
     54  CB       -18.6840   46.6540  129.3930 C.3    61  ILE61       0.0276
     55  CG1      -17.3620   46.6480  130.1720 C.3    61  ILE61       0.0022
     56  CG2      -18.6790   45.4680  128.4620 C.3    61  ILE61       0.0022
     57  CD1      -17.3390   47.5570  131.3850 C.3    61  ILE61       0.0001
     58  N        -29.1710   41.9440  135.3210 N.3   104  ARG104     -0.1245
     59  CA       -29.5670   42.8270  136.3960 C.3   104  ARG104      0.1563
     60  C        -30.9320   42.3400  136.8380 C.2   104  ARG104      0.2260
     61  O        -31.5590   41.5450  136.1680 O.2   104  ARG104     -0.2867
     62  CB       -29.6630   44.2800  135.9240 C.3   104  ARG104      0.0307
     63  CG       -28.4100   44.8220  135.2690 C.3   104  ARG104      0.0489
     64  CD       -28.1750   46.2790  135.6260 C.3   104  ARG104      0.2205
     65  NE       -29.3940   47.0720  135.5520 N.pl3 104  ARG104     -0.0865
     66  CZ       -29.4620   48.3540  135.8870 C.cat 104  ARG104      0.5346
     67  NH1      -28.3690   48.9680  136.3100 N.pl3 104  ARG104      0.1354
     68  NH2      -30.6120   49.0200  135.8200 N.pl3 104  ARG104      0.1354
     69  N        -22.7800   42.3470  141.9070 N.3   134  LYS134     -0.1245
     70  CA       -22.1330   42.1400  140.6260 C.3   134  LYS134      0.1561
     71  C        -22.9930   41.3270  139.6580 C.2   134  LYS134      0.2260
     72  O        -22.7840   41.3780  138.4500 O.2   134  LYS134     -0.2867
     73  CB       -20.7530   41.4860  140.8260 C.3   134  LYS134      0.0271
     74  CG       -19.7270   42.3870  141.5630 C.3   134  LYS134      0.0035
     75  CD       -19.6660   43.7740  140.9330 C.3   134  LYS134      0.0206
     76  CE       -18.8960   44.7730  141.7700 C.3   134  LYS134      0.1093
     77  NZ       -19.2640   46.1640  141.3540 N.3   134  LYS134     -0.1314
     78  N        -13.1850   39.3670  141.2230 N.3   193  ASP193     -0.1225
     79  CA       -13.4540   40.3980  140.2240 C.3   193  ASP193      0.1805
     80  C        -12.1760   41.1930  139.9820 C.2   193  ASP193      0.2597
     81  O        -11.4520   41.4610  140.9180 O.2   193  ASP193     -0.2718
     82  CB       -14.5580   41.3090  140.7670 C.3   193  ASP193      0.1424
     83  CG       -14.9910   42.3910  139.7860 C.2   193  ASP193      0.3668
     84  OD1      -14.1240   43.1400  139.2900 O.co2 193  ASP193     -0.2456
     85  OD2      -16.2120   42.5110  139.5330 O.co2 193  ASP193     -0.2456
     86  N        -11.8970   41.5640  138.7340 N.am  194  HIS194     -0.1975
     87  CA       -10.6880   42.3260  138.4020 C.3   194  HIS194      0.1656
     88  C         -9.3900   41.6010  138.7730 C.2   194  HIS194      0.2291
     89  O         -8.3090   42.1520  138.6060 O.2   194  HIS194     -0.2864
     90  CB       -10.6840   43.6950  139.1090 C.3   194  HIS194      0.0771
     91  CG       -11.5210   44.7450  138.4400 C.ar  194  HIS194      0.0820
     92  ND1      -12.9000   44.7580  138.4980 N.ar  194  HIS194     -0.2267
     93  CD2      -11.1680   45.8410  137.7220 C.ar  194  HIS194      0.1154
     94  CE1      -13.3600   45.8140  137.8490 C.ar  194  HIS194      0.1986
     95  NE2      -12.3290   46.4890  137.3680 N.ar  194  HIS194     -0.2212
     96  N        -19.8280   36.9910  133.6870 N.3   225  SER225     -0.1202
     97  CA       -19.3200   37.3960  134.9740 C.3   225  SER225      0.2020
     98  C        -20.1230   38.6330  135.3500 C.2   225  SER225      0.2619
     99  O        -21.3520   38.5950  135.3240 O.2   225  SER225     -0.2717
    100  CB       -17.8280   37.7020  134.8800 C.3   225  SER225      0.2103
    101  OG       -17.5630   38.6440  133.8630 O.3   225  SER225     -0.2182
    102  N        -19.4550   39.7310  135.6800 N.am  226  SER226     -0.1937
    103  CA       -20.1860   40.9330  136.0520 C.3   226  SER226      0.2055
    104  C        -20.3960   41.8560  134.8600 C.2   226  SER226      0.2643
    105  O        -21.5060   42.3290  134.6390 O.2   226  SER226     -0.2714
    106  CB       -19.4670   41.6840  137.1690 C.3   226  SER226      0.2130
    107  OG       -20.3510   42.5890  137.8040 O.3   226  SER226     -0.2179
    108  N        -19.3440   42.1150  134.0900 N.am  227  ALA227     -0.1963
    109  CA       -19.4690   42.9850  132.9250 C.3   227  ALA227      0.1728
    110  C        -19.5000   42.1490  131.6700 C.2   227  ALA227      0.2617
    111  O        -19.9010   42.6160  130.6100 O.2   227  ALA227     -0.2715
    112  CB       -18.3150   43.9460  132.8590 C.3   227  ALA227      0.0334
    113  N        -19.0570   40.9070  131.8030 N.am  228  GLY228     -0.1940
    114  CA       -19.0480   39.9970  130.6780 C.3   228  GLY228      0.2014
    115  C        -17.8340   40.1880  129.8130 C.2   228  GLY228      0.2639
    116  O        -17.8840   39.9620  128.6170 O.2   228  GLY228     -0.2714
    117  N        -16.7320   40.6060  130.4140 N.am  229  VAL229     -0.1963
    118  CA       -15.5150   40.8260  129.6500 C.3   229  VAL229      0.1727
    119  C        -14.2840   40.3160  130.3930 C.2   229  VAL229      0.2617
    120  O        -13.4810   39.5620  129.8380 O.2   229  VAL229     -0.2715
    121  CB       -15.3310   42.3380  129.3130 C.3   229  VAL229      0.0290
    122  CG1      -16.3830   42.7800  128.3400 C.3   229  VAL229      0.0023
    123  CG2      -15.4360   43.1770  130.5590 C.3   229  VAL229      0.0023
    124  N        -14.1570   40.7220  131.6530 N.am  230  GLY230     -0.1940
    125  CA       -13.0200   40.3320  132.4630 C.3   230  GLY230      0.2014
    126  C        -12.8080   38.8420  132.6040 C.2   230  GLY230      0.2638
    127  O        -12.3790   38.1740  131.6760 O.2   230  GLY230     -0.2714
    128  N        -13.1030   38.3210  133.7830 N.am  231  ARG231     -0.1977
    129  CA       -12.9180   36.9100  134.0650 C.3   231  ARG231      0.1597
    130  C        -13.4590   36.0160  132.9620 C.2   231  ARG231      0.2287
    131  O        -12.8600   34.9960  132.6220 O.2   231  ARG231     -0.2864
    132  CB       -13.5960   36.5690  135.3850 C.3   231  ARG231      0.0334
    133  CG       -13.0400   37.3050  136.5740 C.3   231  ARG231      0.0492
    134  CD       -14.0010   37.2110  137.7360 C.3   231  ARG231      0.2205
    135  NE       -14.8870   38.3660  137.7980 N.pl3 231  ARG231     -0.0865
    136  CZ       -15.8990   38.4760  138.6490 C.cat 231  ARG231      0.5346
    137  NH1      -16.1560   37.4970  139.4960 N.pl3 231  ARG231      0.1354
    138  NH2      -16.6330   39.5760  138.6790 N.pl3 231  ARG231      0.1354
    139  N        -12.8970   45.4630  125.5180 N.3   265  LEU265     -0.1245
    140  CA       -11.9860   45.1650  126.6120 C.3   265  LEU265      0.1561
    141  C        -12.1870   43.7600  127.1750 C.2   265  LEU265      0.2260
    142  O        -12.5810   43.6210  128.3250 O.2   265  LEU265     -0.2867
    143  CB       -12.2140   46.2210  127.7140 C.3   265  LEU265      0.0270
    144  CG       -11.6780   46.1720  129.1570 C.3   265  LEU265      0.0019
    145  CD1      -10.2070   46.5360  129.1930 C.3   265  LEU265      0.0001
    146  CD2      -12.4720   47.1530  130.0160 C.3   265  LEU265      0.0001
    147  N         -9.3670   41.8880  130.7200 N.3   267  GLN267     -0.1245
    148  CA        -9.0550   43.2300  131.2670 C.3   267  GLN267      0.1566
    149  C         -7.8970   43.4380  132.2640 C.2   267  GLN267      0.2260
    150  O         -7.7620   44.5270  132.8360 O.2   267  GLN267     -0.2867
    151  CB       -10.3150   43.8430  131.9010 C.3   267  GLN267      0.0367
    152  CG       -10.6600   43.3020  133.2810 C.3   267  GLN267      0.0905
    153  CD       -11.2600   44.3610  134.1890 C.2   267  GLN267      0.2608
    154  OE1      -11.5790   44.0940  135.3470 O.2   267  GLN267     -0.2717
    155  NE2      -11.4140   45.5700  133.6700 N.am  267  GLN267     -0.0878
    156  N         -4.6570   38.6860  134.4500 N.3   271  GLN271     -0.1245
    157  CA        -5.5360   37.7540  133.7660 C.3   271  GLN271      0.1566
    158  C         -4.8550   37.4050  132.4430 C.2   271  GLN271      0.2260
    159  O         -4.9990   36.2910  131.9270 O.2   271  GLN271     -0.2867
    160  CB        -6.9000   38.4090  133.5390 C.3   271  GLN271      0.0367
    161  CG        -7.8080   38.3860  134.7690 C.3   271  GLN271      0.0905
    162  CD        -8.7280   39.6000  134.8510 C.2   271  GLN271      0.2608
    163  OE1       -9.2900   40.0350  133.8490 O.2   271  GLN271     -0.2717
    164  NE2       -8.8910   40.1420  136.0540 N.am  271  GLN271     -0.0878
@<TRIPOS>BOND
     1     3     4    2
     2     3     2    1
     3     1     2    1
     4     2     5    1
     5   139   140    1
     6     5     6    1
     7    11     9    1
     8   140   141    1
     9   140   143    1
    10     8     9    2
    11     8     7    1
    12     6     7    1
    13   141   142    2
    14     9    10    1
    15   143   144    1
    16    52    53    2
    17    52    51    1
    18   122   121    1
    19    45    44    2
    20    56    54    1
    21    51    54    1
    22    51    50    1
    23   116   115    2
    24    38    37    2
    25    41    39    1
    26   144   145    1
    27   144   146    1
    28    44    50   am
    29    44    43    1
    30   121   118    1
    31   121   123    1
    32    54    55    1
    33   118   119    1
    34   118   117    1
    35   115   117   am
    36   115   114    1
    37   120   119    2
    38    37    36    1
    39    37    42   am
    40    55    57    1
    41    43    42    1
    42    43    46    1
    43   119   124   am
    44    36    39    1
    45    36    35    1
    46    39    40    1
    47   111   110    2
    48   114   113    1
    49   147   148    1
    50    26    25    2
    51    48    47   ar
    52   148   151    1
    53   148   149    1
    54    47    46    1
    55    47    49   ar
    56   124   125    1
    57   110   113   am
    58   110   109    1
    59   127   126    2
    60    35    25   am
    61   151   152    1
    62   159   158    2
    63    25    24    1
    64   149   150    2
    65   158   157    1
    66   125   126    1
    67   126   128   am
    68   131   130    2
    69   112   109    1
    70    12    13    1
    71   109   108    1
    72   130   129    1
    73   152   153    1
    74    24    23    1
    75    24    27    1
    76    23    14   am
    77   160   157    1
    78   160   161    1
    79    27    28    1
    80   155   153   am
    81    96    97    1
    82   157   156    1
    83   128   129    1
    84   163   162    2
    85   101   100    1
    86   129   132    1
    87   108   104   am
    88   153   154    2
    89    13    14    1
    90    13    16    1
    91    30    28   ar
    92    30    32   ar
    93    14    15    2
    94   105   104    2
    95    16    17    1
    96    28    29   ar
    97   161   162    1
    98   162   164   am
    99   104   103    1
   100   100    97    1
   101    97    98    1
   102    63    64    1
   103    63    62    1
   104    58    59    1
   105    99    98    2
   106    98   102   am
   107   132   133    1
   108    32    33   ar
   109    65    64    1
   110    65    66    2
   111   102   103    1
   112    68    66    1
   113    66    67    1
   114    62    59    1
   115    17    18    1
   116    29    31   ar
   117   103   106    1
   118    61    60    2
   119    18    19    1
   120    59    60    1
   121   133   134    1
   122    33    31   ar
   123    33    34    1
   124    21    20    1
   125   106   107    1
   126    95    93   ar
   127    95    94   ar
   128    19    20    2
   129    93    91   ar
   130   134   135    1
   131    20    22    1
   132   135   136    2
   133    94    92   ar
   134    87    86    1
   135    87    88    1
   136    87    90    1
   137    91    92   ar
   138    91    90    1
   139    72    71    2
   140    89    88    2
   141   136   138    1
   142   136   137    1
   143    86    80   am
   144    84    83   ar
   145    85    83   ar
   146    71    70    1
   147    83    82    1
   148    80    79    1
   149    80    81    2
   150    79    82    1
   151    79    78    1
   152    70    73    1
   153    70    69    1
   154    73    74    1
   155    75    74    1
   156    75    76    1
   157    77    76    1
