@<TRIPOS>MOLECULE
tmp/1yhjA00.pdb
 156 148 0 0 0
SMALL
GASTEIGER

@<TRIPOS>ATOM
      1  N         23.9100   55.7590    4.7860 N.3     7  SER7       -0.1217
      2  CA        23.7010   55.1520    3.5010 C.3     7  SER7        0.1889
      3  C         24.6460   55.6810    2.4590 C.2     7  SER7        0.2288
      4  O         25.2040   56.7710    2.6150 O.2     7  SER7       -0.2866
      5  CB        22.2360   55.3620    3.0630 C.3     7  SER7        0.2089
      6  OG        21.8940   56.7250    2.9660 O.3     7  SER7       -0.2183
      7  N         25.0300   56.1080   -1.9310 N.3     9  VAL9       -0.1245
      8  CA        24.3500   56.1820   -3.2150 C.3     9  VAL9        0.1561
      9  C         25.4350   56.3680   -4.2750 C.2     9  VAL9        0.2260
     10  O         26.3670   57.1600   -4.0840 O.2     9  VAL9       -0.2867
     11  CB        23.3660   57.3880   -3.3240 C.3     9  VAL9        0.0252
     12  CG1       22.0500   57.0680   -2.6670 C.3     9  VAL9        0.0019
     13  CG2       23.9860   58.6200   -2.6690 C.3     9  VAL9        0.0019
     14  N         23.7920   61.9190   -0.3540 N.3    14  VAL14      -0.1231
     15  CA        22.8730   61.6560    0.7340 C.3    14  VAL14       0.1692
     16  C         23.6010   60.6990    1.6560 C.2    14  VAL14       0.2592
     17  O         24.4700   59.9710    1.2160 O.2    14  VAL14      -0.2718
     18  CB        21.5420   61.0650    0.1610 C.3    14  VAL14       0.0266
     19  CG1       21.5670   59.5520    0.1140 C.3    14  VAL14       0.0020
     20  CG2       20.3950   61.6290    0.9170 C.3    14  VAL14       0.0020
     21  N         23.2890   60.7410    2.9400 N.am   15  GLY15      -0.1957
     22  CA        23.9330   59.8390    3.8800 C.3    15  GLY15       0.1869
     23  C         25.4370   59.9880    4.0000 C.2    15  GLY15       0.2309
     24  O         25.9350   61.0820    4.2610 O.2    15  GLY15      -0.2863
     25  N         24.9780   51.6630    5.2640 N.3    35  SER35      -0.1202
     26  CA        23.7760   50.9510    5.6660 C.3    35  SER35       0.2020
     27  C         23.0820   50.3840    4.4310 C.2    35  SER35       0.2618
     28  O         22.4730   49.3250    4.4850 O.2    35  SER35      -0.2717
     29  CB        22.8220   51.8790    6.4050 C.3    35  SER35       0.2103
     30  OG        22.4920   52.9690    5.5900 O.3    35  SER35      -0.2182
     31  N         23.1370   51.1010    3.3190 N.am   36  VAL36      -0.1979
     32  CA        22.5300   50.5970    2.1010 C.3    36  VAL36       0.1595
     33  C         23.3790   51.1160    0.9590 C.2    36  VAL36       0.2287
     34  O         24.1890   52.0080    1.1510 O.2    36  VAL36      -0.2864
     35  CB        21.0500   51.0910    1.8730 C.3    36  VAL36       0.0276
     36  CG1       20.2050   50.9720    3.1320 C.3    36  VAL36       0.0022
     37  CG2       21.0330   52.5000    1.3660 C.3    36  VAL36       0.0022
     38  N         22.3630   52.2410   -2.6330 N.3    38  PHE38      -0.1241
     39  CA        21.3480   52.4660   -3.6390 C.3    38  PHE38       0.1605
     40  C         21.9780   53.2510   -4.7750 C.2    38  PHE38       0.2264
     41  O         23.0270   53.8780   -4.5940 O.2    38  PHE38      -0.2867
     42  CB        20.1770   53.2340   -3.0390 C.3    38  PHE38       0.0534
     43  CG        19.1050   52.3520   -2.4810 C.ar   38  PHE38      -0.0203
     44  CD1       17.7680   52.6090   -2.7580 C.ar   38  PHE38      -0.0042
     45  CD2       19.4280   51.2460   -1.6970 C.ar   38  PHE38      -0.0042
     46  CE1       16.7700   51.7650   -2.2500 C.ar   38  PHE38      -0.0003
     47  CE2       18.4350   50.4050   -1.1920 C.ar   38  PHE38      -0.0003
     48  CZ        17.1120   50.6660   -1.4690 C.ar   38  PHE38      -0.0000
     49  N         20.6930   55.8590   -6.1850 N.3    40  ASN40      -0.1225
     50  CA        20.3910   57.2760   -5.9570 C.3    40  ASN40       0.1785
     51  C         19.2860   57.3100   -4.9060 C.2    40  ASN40       0.2597
     52  O         18.6450   56.2920   -4.6490 O.2    40  ASN40      -0.2718
     53  CB        19.9260   57.9430   -7.2600 C.3    40  ASN40       0.1169
     54  CG        18.8020   57.1740   -7.9450 C.2    40  ASN40       0.2627
     55  OD1       17.6490   57.2540   -7.5150 O.2    40  ASN40      -0.2716
     56  ND2       19.1380   56.3900   -8.9820 N.am   40  ASN40      -0.0877
     57  N         19.0560   58.4630   -4.2900 N.am   41  HIS41      -0.1961
     58  CA        18.0180   58.5470   -3.2670 C.3    41  HIS41       0.1787
     59  C         16.6280   58.2930   -3.8400 C.2    41  HIS41       0.2621
     60  O         16.3940   58.4730   -5.0300 O.2    41  HIS41      -0.2715
     61  CB        18.0880   59.8800   -2.5220 C.3    41  HIS41       0.0785
     62  CG        17.6690   61.0650   -3.3240 C.ar   41  HIS41       0.0821
     63  ND1       16.4750   61.1250   -4.0070 N.ar   41  HIS41      -0.2267
     64  CD2       18.2640   62.2690   -3.4970 C.ar   41  HIS41       0.1154
     65  CE1       16.3520   62.3160   -4.5670 C.ar   41  HIS41       0.1986
     66  NE2       17.4240   63.0290   -4.2720 N.ar   41  HIS41      -0.2212
     67  N         15.7050   57.8580   -2.9900 N.am   42  THR42      -0.1937
     68  CA        14.3520   57.4950   -3.4120 C.3    42  THR42       0.2028
     69  C         13.4280   58.6310   -3.7950 C.2    42  THR42       0.2642
     70  O         12.2180   58.4710   -3.7640 O.2    42  THR42      -0.2714
     71  CB        13.6850   56.6320   -2.3370 C.3    42  THR42       0.1808
     72  OG1       14.0490   57.1360   -1.0500 O.3    42  THR42      -0.2208
     73  CG2       14.1520   55.1970   -2.4450 C.3    42  THR42       0.0379
     74  N         14.0030   59.7720   -4.1780 N.am   43  GLY43      -0.1954
     75  CA        13.2190   60.9290   -4.5800 C.3    43  GLY43       0.1869
     76  C         13.2210   61.0510   -6.0790 C.2    43  GLY43       0.2309
     77  O         12.4950   61.8470   -6.6270 O.2    43  GLY43      -0.2863
     78  N         20.0190   46.6990    0.7360 N.3    51  VAL51      -0.1245
     79  CA        20.0230   47.2280    2.0910 C.3    51  VAL51       0.1561
     80  C         20.8410   46.2690    2.9340 C.2    51  VAL51       0.2260
     81  O         20.9360   45.0930    2.6100 O.2    51  VAL51      -0.2867
     82  CB        18.5960   47.3030    2.6340 C.3    51  VAL51       0.0252
     83  CG1       17.8410   46.0970    2.2090 C.3    51  VAL51       0.0019
     84  CG2       18.5980   47.3770    4.1460 C.3    51  VAL51       0.0019
     85  N         19.6420   58.3780    9.0940 N.3    79  TYR79      -0.1227
     86  CA        18.4690   57.6870    8.5970 C.3    79  TYR79       0.1736
     87  C         18.5080   56.1720    8.4750 C.2    79  TYR79       0.2596
     88  O         19.3290   55.6210    7.7560 O.2    79  TYR79      -0.2718
     89  CB        18.1430   58.2590    7.2420 C.3    79  TYR79       0.0548
     90  CG        16.9180   57.6840    6.5770 C.ar   79  TYR79      -0.0200
     91  CD1       15.7000   57.6130    7.2520 C.ar   79  TYR79      -0.0009
     92  CD2       16.9540   57.2800    5.2400 C.ar   79  TYR79      -0.0009
     93  CE1       14.5650   57.1750    6.6250 C.ar   79  TYR79       0.0417
     94  CE2       15.8130   56.8280    4.5940 C.ar   79  TYR79       0.0417
     95  CZ        14.6150   56.7830    5.2940 C.ar   79  TYR79       0.1957
     96  OH        13.4600   56.3690    4.6740 O.3    79  TYR79      -0.2866
     97  N         17.5800   55.5090    9.1610 N.am   80  THR80      -0.1939
     98  CA        17.4390   54.0640    9.0980 C.3    80  THR80       0.2028
     99  C         15.9460   53.7540    9.0660 C.2    80  THR80       0.2642
    100  O         15.1480   54.5550    9.5390 O.2    80  THR80      -0.2714
    101  CB        18.0190   53.3350   10.3200 C.3    80  THR80       0.1808
    102  OG1       19.2940   53.8970   10.6900 O.3    80  THR80      -0.2208
    103  CG2       18.1760   51.8610    9.9690 C.3    80  THR80       0.0379
    104  N         15.5800   52.5860    8.5270 N.am   81  ARG81      -0.1977
    105  CA        14.1890   52.1530    8.4260 C.3    81  ARG81       0.1597
    106  C         13.9670   50.8660    9.2100 C.2    81  ARG81       0.2287
    107  O         12.8440   50.5640    9.6130 O.2    81  ARG81      -0.2864
    108  CB        13.8110   51.9090    6.9680 C.3    81  ARG81       0.0334
    109  CG        13.8020   53.1420    6.1210 C.3    81  ARG81       0.0492
    110  CD        13.5320   52.8070    4.6720 C.3    81  ARG81       0.2205
    111  NE        12.1950   52.2720    4.4200 N.pl3  81  ARG81      -0.0865
    112  CZ        11.0690   52.9240    4.6890 C.cat  81  ARG81       0.5346
    113  NH1       11.1120   54.1340    5.2350 N.pl3  81  ARG81       0.1354
    114  NH2        9.8970   52.3890    4.3740 N.pl3  81  ARG81       0.1354
    115  N         16.3950   61.0920   12.1650 N.3   110  VAL110     -0.1245
    116  CA        15.4980   61.1940   11.0250 C.3   110  VAL110      0.1561
    117  C         14.1970   60.3810   11.1190 C.2   110  VAL110      0.2260
    118  O         14.2190   59.1550   11.1000 O.2   110  VAL110     -0.2867
    119  CB        16.2340   60.7810    9.7410 C.3   110  VAL110      0.0252
    120  CG1       15.3380   60.9220    8.5580 C.3   110  VAL110      0.0019
    121  CG2       17.4520   61.6200    9.5680 C.3   110  VAL110      0.0019
    122  N          8.6180   59.3150    7.4150 N.3   122  TYR122     -0.1241
    123  CA         9.3630   58.6160    6.3640 C.3   122  TYR122      0.1605
    124  C          9.4550   57.1380    6.7230 C.2   122  TYR122      0.2264
    125  O          9.2970   56.2640    5.8740 O.2   122  TYR122     -0.2867
    126  CB        10.8010   59.1230    6.2870 C.3   122  TYR122      0.0534
    127  CG        11.0010   60.5840    5.9930 C.ar  122  TYR122     -0.0201
    128  CD1       12.0960   61.2550    6.5290 C.ar  122  TYR122     -0.0009
    129  CD2       10.1490   61.2790    5.1370 C.ar  122  TYR122     -0.0009
    130  CE1       12.3460   62.5830    6.2270 C.ar  122  TYR122      0.0417
    131  CE2       10.3820   62.6100    4.8170 C.ar  122  TYR122      0.0417
    132  CZ        11.4880   63.2600    5.3710 C.ar  122  TYR122      0.1957
    133  OH        11.7550   64.5790    5.0760 O.3   122  TYR122     -0.2866
    134  N         17.3410   67.1710   -0.9340 N.3   226  VAL226     -0.1231
    135  CA        17.4280   65.9100   -0.1990 C.3   226  VAL226      0.1692
    136  C         18.8690   65.8150    0.2870 C.2   226  VAL226      0.2592
    137  O         19.7900   65.9800   -0.5060 O.2   226  VAL226     -0.2718
    138  CB        17.1340   64.7180   -1.0930 C.3   226  VAL226      0.0266
    139  CG1       17.3040   63.4510   -0.2990 C.3   226  VAL226      0.0020
    140  CG2       15.7360   64.8170   -1.6300 C.3   226  VAL226      0.0020
    141  N         19.0720   65.5760    1.5750 N.am  227  GLY227     -0.1957
    142  CA        20.4210   65.4920    2.1020 C.3   227  GLY227      0.1869
    143  C         20.8890   66.6410    2.9690 C.2   227  GLY227      0.2309
    144  O         21.8280   66.4920    3.7370 O.2   227  GLY227     -0.2863
    145  N         20.1100   67.7340    5.6940 N.3   229  GLY229     -0.1210
    146  CA        20.3270   67.3890    7.0890 C.3   229  GLY229      0.1956
    147  C         21.5080   66.4990    7.4220 C.2   229  GLY229      0.2611
    148  O         21.9900   66.5180    8.5520 O.2   229  GLY229     -0.2717
    149  N         21.9540   65.6960    6.4500 N.am  230  ASP230     -0.1973
    150  CA        23.1020   64.8140    6.6450 C.3   230  ASP230      0.1709
    151  C         24.3510   65.6850    6.5960 C.2   230  ASP230      0.2293
    152  O         25.3330   65.4680    7.3250 O.2   230  ASP230     -0.2864
    153  CB        23.1890   63.7690    5.5340 C.3   230  ASP230      0.1436
    154  CG        21.9820   62.8720    5.4880 C.2   230  ASP230      0.3671
    155  OD1       21.3670   62.6200    6.5520 O.co2 230  ASP230     -0.2456
    156  OD2       21.6600   62.4020    4.3830 O.co2 230  ASP230     -0.2456
@<TRIPOS>BOND
     1    56    54   am
     2    54    55    2
     3    54    53    1
     4    53    50    1
     5    77    76    2
     6    49    50    1
     7    76    75    1
     8    50    51    1
     9    60    59    2
    10    51    52    2
    11    51    57   am
    12    40    41    2
    13    40    39    1
    14    75    74    1
    15    65    66   ar
    16    65    63   ar
    17    57    58    1
    18     9    10    2
    19     9     8    1
    20    66    64   ar
    21    74    69   am
    22    63    62   ar
    23    59    58    1
    24    59    67   am
    25    69    70    2
    26    69    68    1
    27    39    42    1
    28    39    38    1
    29    64    62   ar
    30    68    67    1
    31    68    71    1
    32    62    61    1
    33    11     8    1
    34    11    13    1
    35    11    12    1
    36    58    61    1
    37     8     7    1
    38    42    43    1
    39    44    43   ar
    40    44    46   ar
    41    43    45   ar
    42    73    71    1
    43    71    72    1
    44    46    48   ar
    45    45    47   ar
    46   140   138    1
    47    48    47   ar
    48   138   139    1
    49   138   135    1
    50   134   135    1
    51   137   136    2
    52    14    15    1
    53   135   136    1
    54    19    18    1
    55    18    15    1
    56    18    20    1
    57   136   141   am
    58    15    16    1
    59    78    79    1
    60    33    34    2
    61    33    32    1
    62    17    16    2
    63    37    35    1
    64   141   142    1
    65    16    21   am
    66    35    32    1
    67    35    36    1
    68    79    82    1
    69    79    80    1
    70    32    31    1
    71   142   143    1
    72    83    82    1
    73     3     4    2
    74     3     2    1
    75    81    80    2
    76    82    84    1
    77    21    22    1
    78     6     5    1
    79   143   144    2
    80     5     2    1
    81    31    27   am
    82     2     1    1
    83    22    23    1
    84    23    24    2
    85   114   112    1
    86   156   154   ar
    87   111   110    1
    88   111   112    2
    89    27    28    2
    90    27    26    1
    91    94    92   ar
    92    94    95   ar
    93   110   109    1
    94    96    95    1
    95   112   113    1
    96   131   129   ar
    97   131   132   ar
    98   133   132    1
    99   129   127   ar
   100    92    90   ar
   101    25    26    1
   102    95    93   ar
   103   132   130   ar
   104   154   153    1
   105   154   155   ar
   106   153   150    1
   107    30    29    1
   108    26    29    1
   109   145   146    1
   110   125   124    2
   111   127   126    1
   112   127   128   ar
   113   109   108    1
   114   130   128   ar
   115   126   123    1
   116   123   124    1
   117   123   122    1
   118   149   150    1
   119   149   147   am
   120    90    89    1
   121    90    91   ar
   122   151   150    1
   123   151   152    2
   124    93    91   ar
   125   108   105    1
   126   146   147    1
   127    89    86    1
   128   147   148    2
   129    88    87    2
   130   105   104    1
   131   105   106    1
   132    87    86    1
   133    87    97   am
   134   104    99   am
   135   120   119    1
   136    86    85    1
   137    99    98    1
   138    99   100    2
   139    98    97    1
   140    98   101    1
   141   106   107    2
   142   121   119    1
   143   119   116    1
   144   103   101    1
   145   101   102    1
   146   116   117    1
   147   116   115    1
   148   118   117    2
