@<TRIPOS>MOLECULE
tmp/1yhlA01.pdb
 174 162 0 0 0
SMALL
GASTEIGER

@<TRIPOS>ATOM
      1  N          8.6540   20.7300  167.0520 N.3    94  TYR94      -0.1227
      2  CA         9.6570   20.8460  168.1570 C.3    94  TYR94       0.1736
      3  C         10.4950   19.5760  168.3590 C.2    94  TYR94       0.2595
      4  O         11.7030   19.6510  168.6450 O.2    94  TYR94      -0.2718
      5  CB         8.9660   21.3600  169.4810 C.3    94  TYR94       0.0548
      6  CG         8.9510   22.9160  169.3580 C.ar   94  TYR94      -0.0200
      7  CD1       10.1690   23.6360  169.2880 C.ar   94  TYR94      -0.0009
      8  CD2        7.8020   23.6010  169.2520 C.ar   94  TYR94      -0.0009
      9  CE1       10.2150   25.0710  169.1620 C.ar   94  TYR94       0.0417
     10  CE2        7.7640   24.9950  169.1230 C.ar   94  TYR94       0.0417
     11  CZ         8.9750   25.7640  169.0330 C.ar   94  TYR94       0.1957
     12  OH         8.9870   27.2170  168.8780 O.3    94  TYR94      -0.2866
     13  N          9.8730   18.4120  168.2130 N.am   95  LEU95      -0.1980
     14  CA        10.5950   17.1370  168.4980 C.3    95  LEU95       0.1596
     15  C         11.6390   16.8880  167.4190 C.2    95  LEU95       0.2287
     16  O         12.7300   16.3830  167.7110 O.2    95  LEU95      -0.2864
     17  CB         9.6090   15.9380  168.6590 C.3    95  LEU95       0.0297
     18  CG         8.6000   16.0530  169.8190 C.3    95  LEU95       0.0022
     19  CD1        7.6970   14.7900  169.9390 C.3    95  LEU95       0.0001
     20  CD2        9.3730   16.3350  171.2080 C.3    95  LEU95       0.0001
     21  N         14.3880   19.2910  168.2650 N.3    98  ASP98      -0.1225
     22  CA        14.8980   18.9330  169.6210 C.3    98  ASP98       0.1805
     23  C         15.8630   17.6740  169.5010 C.2    98  ASP98       0.2597
     24  O         16.9750   17.6420  170.0870 O.2    98  ASP98      -0.2718
     25  CB        13.7200   18.6030  170.5620 C.3    98  ASP98       0.1424
     26  CG        14.1840   18.1300  171.9380 C.2    98  ASP98       0.3668
     27  OD1       14.5650   19.0040  172.7540 O.co2  98  ASP98      -0.2456
     28  OD2       14.1720   16.9110  172.2220 O.co2  98  ASP98      -0.2456
     29  N         15.4390   16.6740  168.7190 N.am   99  ASP99      -0.1974
     30  CA        16.2600   15.4760  168.5660 C.3    99  ASP99       0.1709
     31  C         17.6250   15.7710  167.9720 C.2    99  ASP99       0.2293
     32  O         18.6070   15.1730  168.3930 O.2    99  ASP99      -0.2864
     33  CB        15.5610   14.4180  167.7440 C.3    99  ASP99       0.1436
     34  CG        14.5200   13.6740  168.5390 C.2    99  ASP99       0.3671
     35  OD1       14.5580   13.6840  169.7900 O.co2  99  ASP99      -0.2456
     36  OD2       13.6230   13.1040  167.9000 O.co2  99  ASP99      -0.2456
     37  N         19.5530   17.6720  170.7610 N.3   102  ASP102     -0.1239
     38  CA        19.8710   16.8130  171.8830 C.3   102  ASP102      0.1674
     39  C         20.8130   15.6350  171.5640 C.2   102  ASP102      0.2266
     40  O         21.2590   14.9280  172.4770 O.2   102  ASP102     -0.2867
     41  CB        18.5860   16.3560  172.5960 C.3   102  ASP102      0.1410
     42  CG        17.8320   17.5320  173.2940 C.2   102  ASP102      0.3668
     43  OD1       18.3950   18.6180  173.3520 O.co2 102  ASP102     -0.2456
     44  OD2       16.6800   17.3630  173.8030 O.co2 102  ASP102     -0.2456
     45  N         19.8720   12.9240  169.9340 N.3   104  SER104     -0.1217
     46  CA        19.1360   11.7320  170.3490 C.3   104  SER104      0.1889
     47  C         19.1330   10.7150  169.2070 C.2   104  SER104      0.2288
     48  O         19.3050   11.0960  168.0310 O.2   104  SER104     -0.2866
     49  CB        17.6780   12.1420  170.6470 C.3   104  SER104      0.2089
     50  OG        17.6240   12.7260  171.9380 O.3   104  SER104     -0.2183
     51  N         13.0930    7.8960  168.6170 N.3   107  ARG107     -0.1245
     52  CA        11.8790    8.6630  168.9740 C.3   107  ARG107      0.1563
     53  C         10.7330    7.7200  168.5860 C.2   107  ARG107      0.2260
     54  O         10.7070    7.2330  167.4550 O.2   107  ARG107     -0.2867
     55  CB        11.8850    9.9300  168.0940 C.3   107  ARG107      0.0307
     56  CG        10.6540   10.8710  168.0400 C.3   107  ARG107      0.0489
     57  CD        10.2720   11.5850  169.2710 C.3   107  ARG107      0.2205
     58  NE        11.3010   12.5760  169.7060 N.pl3 107  ARG107     -0.0865
     59  CZ        11.3570   13.0470  170.9490 C.cat 107  ARG107      0.5346
     60  NH1       10.3570   12.7390  171.8290 N.pl3 107  ARG107      0.1354
     61  NH2       12.2960   13.9590  171.2470 N.pl3 107  ARG107      0.1354
     62  N          7.6410   28.3930  173.8650 N.3   163  THR163     -0.1218
     63  CA         8.3390   27.1050  173.6780 C.3   163  THR163      0.1862
     64  C          9.7610   27.3060  173.1320 C.2   163  THR163      0.2287
     65  O         10.7470   26.6990  173.6130 O.2   163  THR163     -0.2866
     66  CB         7.5060   26.1760  172.7730 C.3   163  THR163      0.1770
     67  OG1        6.1870   25.9920  173.3420 O.3   163  THR163     -0.2211
     68  CG2        8.2050   24.7290  172.6500 C.3   163  THR163      0.0375
     69  N         13.1330   26.3520  174.9150 N.3   167  GLN167     -0.1245
     70  CA        14.2040   25.5270  174.3310 C.3   167  GLN167      0.1566
     71  C         15.6000   26.2110  174.4130 C.2   167  GLN167      0.2260
     72  O         16.6290   25.5010  174.5820 O.2   167  GLN167     -0.2867
     73  CB        13.8610   25.2330  172.8710 C.3   167  GLN167      0.0367
     74  CG        12.7700   24.1370  172.7520 C.3   167  GLN167      0.0905
     75  CD        13.2860   22.7920  173.2930 C.2   167  GLN167      0.2608
     76  OE1       13.3370   22.5190  174.5340 O.2   167  GLN167     -0.2717
     77  NE2       13.6480   21.9520  172.3830 N.am  167  GLN167     -0.0878
     78  N         16.7330   25.6560  177.8940 N.3   170  ASP170     -0.1239
     79  CA        17.1300   24.2390  178.0590 C.3   170  ASP170      0.1674
     80  C         18.5220   23.9120  177.4640 C.2   170  ASP170      0.2266
     81  O         19.4220   23.3360  178.1380 O.2   170  ASP170     -0.2867
     82  CB        16.0540   23.3200  177.4290 C.3   170  ASP170      0.1410
     83  CG        16.4710   21.8740  177.4440 C.2   170  ASP170      0.3668
     84  OD1       16.0550   21.1760  178.3520 O.co2 170  ASP170     -0.2456
     85  OD2       17.3010   21.4730  176.5860 O.co2 170  ASP170     -0.2456
     86  N          9.6750   25.5980  178.1040 N.3   207  LYS207     -0.1231
     87  CA         9.9210   24.6440  177.0280 C.3   207  LYS207      0.1693
     88  C          8.8270   23.6360  176.8240 C.2   207  LYS207      0.2592
     89  O          8.7270   23.0580  175.7080 O.2   207  LYS207     -0.2718
     90  CB        11.2870   23.9370  177.1820 C.3   207  LYS207      0.0285
     91  CG        11.3220   22.9040  178.2260 C.3   207  LYS207      0.0035
     92  CD        12.4530   21.8830  177.9900 C.3   207  LYS207      0.0206
     93  CE        12.4580   20.9400  179.1420 C.3   207  LYS207      0.1093
     94  NZ        13.5890   19.9370  178.9600 N.3   207  LYS207     -0.1314
     95  N          8.0310   23.3660  177.8830 N.am  208  THR208     -0.1953
     96  CA         7.0870   22.2660  177.7520 C.3   208  THR208      0.1897
     97  C          5.6650   22.6430  178.0610 C.2   208  THR208      0.2313
     98  O          4.7540   22.2250  177.3770 O.2   208  THR208     -0.2863
     99  CB         7.5110   21.0270  178.6540 C.3   208  THR208      0.1794
    100  OG1        8.6370   20.4420  178.0450 O.3   208  THR208     -0.2208
    101  CG2        6.4390   19.9450  178.7400 C.3   208  THR208      0.0378
    102  N          2.7500   24.3220  175.3340 N.3   211  TYR211     -0.1241
    103  CA         2.1710   23.5020  174.2850 C.3   211  TYR211      0.1605
    104  C          1.6000   22.1810  174.7190 C.2   211  TYR211      0.2264
    105  O          0.7470   21.6800  174.0430 O.2   211  TYR211     -0.2867
    106  CB         3.1190   23.3440  173.0600 C.3   211  TYR211      0.0534
    107  CG         4.1900   22.2680  173.2060 C.ar  211  TYR211     -0.0201
    108  CD1        3.9370   20.9450  172.7860 C.ar  211  TYR211     -0.0009
    109  CD2        5.4090   22.5590  173.7960 C.ar  211  TYR211     -0.0009
    110  CE1        4.8950   19.9280  172.9130 C.ar  211  TYR211      0.0417
    111  CE2        6.4070   21.5520  173.9030 C.ar  211  TYR211      0.0417
    112  CZ         6.1190   20.2550  173.4920 C.ar  211  TYR211      0.1957
    113  OH         7.0840   19.3150  173.6410 O.3   211  TYR211     -0.2866
    114  N          4.4930   16.6300  184.1200 N.3   246  PHE246     -0.1227
    115  CA         4.7100   15.8620  182.9100 C.3   246  PHE246      0.1736
    116  C          6.1890   15.8610  182.5570 C.2   246  PHE246      0.2595
    117  O          6.7420   14.8460  182.1830 O.2   246  PHE246     -0.2718
    118  CB         3.9200   16.4770  181.7690 C.3   246  PHE246      0.0547
    119  CG         4.0730   15.7240  180.4040 C.ar  246  PHE246     -0.0202
    120  CD1        5.0380   16.0990  179.4960 C.ar  246  PHE246     -0.0042
    121  CD2        3.1930   14.7200  180.0460 C.ar  246  PHE246     -0.0042
    122  CE1        5.1780   15.4510  178.2820 C.ar  246  PHE246     -0.0003
    123  CE2        3.2990   14.0640  178.7630 C.ar  246  PHE246     -0.0003
    124  CZ         4.2790   14.4320  177.9300 C.ar  246  PHE246     -0.0000
    125  N          6.8310   17.0080  182.6460 N.am  247  GLN247     -0.1979
    126  CA         8.2520   17.0600  182.3300 C.3   247  GLN247      0.1601
    127  C          9.0900   16.3790  183.3980 C.2   247  GLN247      0.2287
    128  O         10.0860   15.7120  183.1250 O.2   247  GLN247     -0.2864
    129  CB         8.6550   18.5000  182.1700 C.3   247  GLN247      0.0394
    130  CG        10.0670   18.7050  181.6570 C.3   247  GLN247      0.0908
    131  CD        10.3060   18.1220  180.3030 C.2   247  GLN247      0.2608
    132  OE1        9.5890   18.4440  179.3560 O.2   247  GLN247     -0.2717
    133  NE2       11.3630   17.3000  180.1820 N.am  247  GLN247     -0.0878
    134  N          9.0510   12.8680  182.4950 N.3   250  ASP250     -0.1225
    135  CA         9.9650   12.6710  181.3440 C.3   250  ASP250      0.1805
    136  C         11.4310   12.5700  181.7720 C.2   250  ASP250      0.2597
    137  O         12.1720   11.7240  181.2900 O.2   250  ASP250     -0.2718
    138  CB         9.8190   13.8960  180.4260 C.3   250  ASP250      0.1424
    139  CG        10.4690   13.6950  179.0730 C.2   250  ASP250      0.3668
    140  OD1       10.0760   12.7580  178.3330 O.co2 250  ASP250     -0.2456
    141  OD2       11.3790   14.4810  178.7720 O.co2 250  ASP250     -0.2456
    142  N         11.8490   13.4390  182.6900 N.am  251  ASP251     -0.1974
    143  CA        13.2310   13.4280  183.1470 C.3   251  ASP251      0.1709
    144  C         13.5730   12.1140  183.8700 C.2   251  ASP251      0.2293
    145  O         14.6730   11.5600  183.6820 O.2   251  ASP251     -0.2864
    146  CB        13.4780   14.6300  184.0790 C.3   251  ASP251      0.1436
    147  CG        13.4180   16.0210  183.3230 C.2   251  ASP251      0.3671
    148  OD1       13.2600   16.0730  182.0770 O.co2 251  ASP251     -0.2456
    149  OD2       13.5550   17.0580  184.0020 O.co2 251  ASP251     -0.2456
    150  N         13.8830    9.3140  181.2850 N.3   254  ASP254     -0.1239
    151  CA        15.0950    9.4250  180.4780 C.3   254  ASP254      0.1674
    152  C         16.2080    8.5610  181.0650 C.2   254  ASP254      0.2266
    153  O         16.9080    7.8850  180.3280 O.2   254  ASP254     -0.2867
    154  CB        15.5950   10.8670  180.4450 C.3   254  ASP254      0.1410
    155  CG        16.6910   11.0680  179.4140 C.2   254  ASP254      0.3668
    156  OD1       16.3730   11.2590  178.2210 O.co2 254  ASP254     -0.2456
    157  OD2       17.8870   10.9740  179.7630 O.co2 254  ASP254     -0.2456
    158  N         12.2560    5.9200  173.5200 N.3   264  LYS264     -0.1245
    159  CA        13.4390    6.7300  173.2910 C.3   264  LYS264      0.1561
    160  C         14.6580    6.2700  174.0970 C.2   264  LYS264      0.2260
    161  O         14.5600    5.4970  175.0580 O.2   264  LYS264     -0.2867
    162  CB        13.1440    8.2410  173.4880 C.3   264  LYS264      0.0271
    163  CG        12.4060    8.6010  174.7280 C.3   264  LYS264      0.0035
    164  CD        11.4950    9.9050  174.5190 C.3   264  LYS264      0.0206
    165  CE        11.3260   10.5770  175.8680 C.3   264  LYS264      0.1093
    166  NZ        10.3020   11.6860  175.8780 N.3   264  LYS264     -0.1314
    167  N         20.0350   12.7880  178.8340 N.3   268  ASP268     -0.1239
    168  CA        20.1110   13.9700  179.7030 C.3   268  ASP268      0.1674
    169  C         21.4170   13.9800  180.4710 C.2   268  ASP268      0.2266
    170  O         21.9860   15.0400  180.6460 O.2   268  ASP268     -0.2867
    171  CB        18.9930   13.9780  180.7250 C.3   268  ASP268      0.1410
    172  CG        17.6300   14.3140  180.0970 C.2   268  ASP268      0.3668
    173  OD1       17.5440   14.7980  178.9430 O.co2 268  ASP268     -0.2456
    174  OD2       16.6710   14.0920  180.7990 O.co2 268  ASP268     -0.2456
@<TRIPOS>BOND
     1     1     2    1
     2    15    16    2
     3    15    14    1
     4    54    53    2
     5    33    34    1
     6    33    30    1
     7    36    34   ar
     8    31    32    2
     9    31    30    1
    10    48    47    2
    11    56    55    1
    12    56    57    1
    13    55    52    1
    14     2     3    1
    15     2     5    1
    16    13     3   am
    17    13    14    1
    18    21    22    1
    19     3     4    2
    20    14    17    1
    21    34    35   ar
    22    30    29    1
    23    53    52    1
    24    51    52    1
    25    17    18    1
    26    29    23   am
    27    12    11    1
    28    11    10   ar
    29    11     9   ar
    30    10     8   ar
    31     9     7   ar
    32    47    46    1
    33     8     6   ar
    34    57    58    1
    35     7     6   ar
    36     6     5    1
    37    23    22    1
    38    23    24    2
    39    22    25    1
    40    58    59    2
    41    18    19    1
    42    18    20    1
    43    45    46    1
    44    46    49    1
    45    25    26    1
    46    49    50    1
    47    37    38    1
    48    59    61    1
    49    59    60    1
    50    39    38    1
    51    39    40    2
    52    38    41    1
    53    26    28   ar
    54    26    27   ar
    55    77    75   am
    56    41    42    1
    57    68    66    1
    58    74    73    1
    59    74    75    1
    60    66    67    1
    61    66    63    1
    62   108   110   ar
    63   108   107   ar
    64    73    70    1
    65   110   112   ar
    66   106   107    1
    67   106   103    1
    68    64    65    2
    69    64    63    1
    70   107   109   ar
    71   159   162    1
    72   159   158    1
    73   159   160    1
    74    75    76    2
    75    42    43   ar
    76    42    44   ar
    77   162   163    1
    78   112   113    1
    79   112   111   ar
    80    63    62    1
    81   109   111   ar
    82   105   104    2
    83   160   161    2
    84   103   104    1
    85   103   102    1
    86    70    71    1
    87    70    69    1
    88    71    72    2
    89   164   163    1
    90   164   165    1
    91    89    88    2
    92   165   166    1
    93    85    83   ar
    94    88    87    1
    95    88    95   am
    96    87    90    1
    97    87    86    1
    98    90    91    1
    99    98    97    2
   100    82    83    1
   101    82    79    1
   102    83    84   ar
   103    80    79    1
   104    80    81    2
   105    96    95    1
   106    96    97    1
   107    96    99    1
   108    78    79    1
   109   124   122   ar
   110   124   123   ar
   111    92    91    1
   112    92    93    1
   113   100    99    1
   114   156   155   ar
   115   122   120   ar
   116   140   139   ar
   117    99   101    1
   118   123   121   ar
   119   141   139   ar
   120   167   168    1
   121   173   172   ar
   122    94    93    1
   123   139   138    1
   124   132   131    2
   125   155   157   ar
   126   155   154    1
   127   120   119   ar
   128   168   169    1
   129   168   171    1
   130   121   119   ar
   131   172   171    1
   132   172   174   ar
   133   133   131   am
   134   131   130    1
   135   153   152    2
   136   119   118    1
   137   138   135    1
   138   154   151    1
   139   169   170    2
   140   151   152    1
   141   151   150    1
   142   137   136    2
   143   135   136    1
   144   135   134    1
   145   130   129    1
   146   118   115    1
   147   136   142   am
   148   148   147   ar
   149   129   126    1
   150   117   116    2
   151   126   125    1
   152   126   127    1
   153   116   125   am
   154   116   115    1
   155   142   143    1
   156   115   114    1
   157   128   127    2
   158   143   144    1
   159   143   146    1
   160   147   149   ar
   161   147   146    1
   162   145   144    2
