@<TRIPOS>MOLECULE
tmp/1yhmC00.pdb
 188 173 0 0 0
SMALL
GASTEIGER

@<TRIPOS>ATOM
      1  N         43.6580   10.5710  188.1620 N.3    85  GLN85      -0.1245
      2  CA        44.8680   10.8850  187.4750 C.3    85  GLN85       0.1566
      3  C         46.0710   10.8680  188.3640 C.2    85  GLN85       0.2260
      4  O         47.1610   10.4540  187.9380 O.2    85  GLN85      -0.2867
      5  CB        44.8240   12.2860  186.9110 C.3    85  GLN85       0.0367
      6  CG        46.0420   12.4430  186.0760 C.3    85  GLN85       0.0905
      7  CD        46.0610   13.6990  185.3280 C.2    85  GLN85       0.2608
      8  OE1       45.4390   14.6820  185.7230 O.2    85  GLN85      -0.2717
      9  NE2       46.7870   13.7010  184.2180 N.am   85  GLN85      -0.0878
     10  N         47.2450    7.4660  188.6680 N.3    88  TYR88      -0.1227
     11  CA        47.9540    7.1160  187.4380 C.3    88  TYR88       0.1736
     12  C         49.3630    7.7320  187.3830 C.2    88  TYR88       0.2595
     13  O         50.3410    7.0140  187.1650 O.2    88  TYR88      -0.2718
     14  CB        47.0780    7.2970  186.1660 C.3    88  TYR88       0.0548
     15  CG        46.0650    6.1420  186.1000 C.ar   88  TYR88      -0.0200
     16  CD1       46.5290    4.8480  186.1790 C.ar   88  TYR88      -0.0009
     17  CD2       44.6560    6.3400  186.0290 C.ar   88  TYR88      -0.0009
     18  CE1       45.6960    3.7740  186.1780 C.ar   88  TYR88       0.0417
     19  CE2       43.7650    5.2140  186.0240 C.ar   88  TYR88       0.0417
     20  CZ        44.3290    3.9310  186.1120 C.ar   88  TYR88       0.1957
     21  OH        43.6310    2.7190  186.1230 O.3    88  TYR88      -0.2866
     22  N         49.4770    9.0220  187.7060 N.am   89  LEU89      -0.1980
     23  CA        50.7610    9.7180  187.5970 C.3    89  LEU89       0.1596
     24  C         51.8000    9.2770  188.6340 C.2    89  LEU89       0.2287
     25  O         53.0020    9.1770  188.3290 O.2    89  LEU89      -0.2864
     26  CB        50.5730   11.2340  187.6670 C.3    89  LEU89       0.0297
     27  CG        49.7390   11.8820  186.5620 C.3    89  LEU89       0.0022
     28  CD1       49.7710   13.3900  186.7760 C.3    89  LEU89       0.0001
     29  CD2       50.2360   11.5260  185.1970 C.3    89  LEU89       0.0001
     30  N         52.8070    5.9100  187.3690 N.3    92  ASP92      -0.1225
     31  CA        53.4060    6.0540  186.0580 C.3    92  ASP92       0.1805
     32  C         54.8020    6.7080  186.1320 C.2    92  ASP92       0.2597
     33  O         55.7170    6.3130  185.3960 O.2    92  ASP92      -0.2718
     34  CB        52.4500    6.7520  185.1130 C.3    92  ASP92       0.1424
     35  CG        53.0900    7.1140  183.8110 C.2    92  ASP92       0.3668
     36  OD1       52.8450    6.4110  182.7960 O.co2  92  ASP92      -0.2456
     37  OD2       53.8550    8.1020  183.7860 O.co2  92  ASP92      -0.2456
     38  N         54.9970    7.6530  187.0470 N.am   93  ASP93      -0.1974
     39  CA        56.3340    8.2690  187.2010 C.3    93  ASP93       0.1709
     40  C         57.3990    7.2430  187.5990 C.2    93  ASP93       0.2293
     41  O         58.5070    7.2230  187.0530 O.2    93  ASP93      -0.2864
     42  CB        56.3030    9.4490  188.1530 C.3    93  ASP93       0.1436
     43  CG        55.7700   10.6970  187.5000 C.2    93  ASP93       0.3671
     44  OD1       55.8230   10.7960  186.2670 O.co2  93  ASP93      -0.2456
     45  OD2       55.2980   11.6060  188.2000 O.co2  93  ASP93      -0.2456
     46  N         58.0190    5.0870  184.6470 N.3    95  ASP95      -0.1239
     47  CA        58.7930    5.7220  183.5970 C.3    95  ASP95       0.1674
     48  C         60.1810    6.2260  184.0460 C.2    95  ASP95       0.2266
     49  O         60.8800    6.8520  183.2620 O.2    95  ASP95      -0.2867
     50  CB        57.9700    6.8280  182.9140 C.3    95  ASP95       0.1410
     51  CG        56.6820    6.2910  182.2130 C.2    95  ASP95       0.3668
     52  OD1       56.6180    5.0590  181.9050 O.co2  95  ASP95      -0.2456
     53  OD2       55.7430    7.1120  181.9480 O.co2  95  ASP95      -0.2456
     54  N         60.8040    8.6420  185.8870 N.3    97  SER97      -0.1217
     55  CA        60.7080   10.0980  185.6990 C.3    97  SER97       0.1889
     56  C         61.2340   10.8470  186.9500 C.2    97  SER97       0.2288
     57  O         61.1980   10.2830  188.0670 O.2    97  SER97      -0.2866
     58  CB        59.2530   10.5160  185.4080 C.3    97  SER97       0.2089
     59  OG        58.8410   10.2170  184.0900 O.3    97  SER97      -0.2183
     60  N         57.5130   16.3820  188.2250 N.3    99  ARG99      -0.1245
     61  CA        56.0980   16.3780  187.9290 C.3    99  ARG99       0.1563
     62  C         55.4750   17.6410  188.4990 C.2    99  ARG99       0.2260
     63  O         55.5620   17.9020  189.7060 O.2    99  ARG99      -0.2867
     64  CB        55.4230   15.1250  188.5100 C.3    99  ARG99       0.0307
     65  CG        53.9130   15.0950  188.3800 C.3    99  ARG99       0.0489
     66  CD        53.4670   13.8810  187.6110 C.3    99  ARG99       0.2205
     67  NE        53.2480   14.2290  186.2190 N.pl3  99  ARG99      -0.0865
     68  CZ        53.2800   13.3670  185.2020 C.cat  99  ARG99       0.5346
     69  NH1       53.5680   12.0830  185.3830 N.pl3  99  ARG99       0.1354
     70  NH2       53.0420   13.8020  183.9800 N.pl3  99  ARG99       0.1354
     71  N         42.3670    2.0810  181.2630 N.3   154  THR154     -0.1218
     72  CA        43.5770    2.8390  181.4320 C.3   154  THR154      0.1862
     73  C         44.7190    1.9380  181.8910 C.2   154  THR154      0.2287
     74  O         45.8770    2.1510  181.4910 O.2   154  THR154     -0.2866
     75  CB        43.4210    3.9580  182.4850 C.3   154  THR154      0.1770
     76  OG1       42.3400    4.8530  182.1090 O.3   154  THR154     -0.2211
     77  CG2       44.7630    4.6860  182.6070 C.3   154  THR154      0.0375
     78  N         48.0970    1.2500  180.0350 N.3   158  GLN158     -0.1245
     79  CA        49.4180    1.3830  180.6550 C.3   158  GLN158      0.1566
     80  C         50.2720    0.1780  180.3500 C.2   158  GLN158      0.2260
     81  O         51.4750    0.2940  180.1450 O.2   158  GLN158     -0.2867
     82  CB        49.3250    1.6030  182.1860 C.3   158  GLN158      0.0367
     83  CG        48.9650    3.0360  182.6190 C.3   158  GLN158      0.0905
     84  CD        49.9870    4.0950  182.1750 C.2   158  GLN158      0.2608
     85  OE1       50.0130    4.5420  181.0100 O.2   158  GLN158     -0.2717
     86  NE2       50.8130    4.5230  183.1200 N.am  158  GLN158     -0.0878
     87  N         51.5240    0.5260  176.6910 N.3   160  ASP160     -0.1239
     88  CA        52.5980    1.5150  176.7520 C.3   160  ASP160      0.1674
     89  C         53.8720    0.9650  177.3700 C.2   160  ASP160      0.2266
     90  O         54.9150    1.0170  176.7600 O.2   160  ASP160     -0.2867
     91  CB        52.1220    2.7550  177.5280 C.3   160  ASP160      0.1410
     92  CG        53.1800    3.8430  177.6210 C.2   160  ASP160      0.3668
     93  OD1       53.0260    4.8890  176.9390 O.co2 160  ASP160     -0.2456
     94  OD2       54.1630    3.6520  178.3790 O.co2 160  ASP160     -0.2456
     95  N         45.4520    3.9680  177.1130 N.3   195  LYS195     -0.1231
     96  CA        46.1100    4.6080  178.2400 C.3   195  LYS195      0.1693
     97  C         45.5540    6.0040  178.6170 C.2   195  LYS195      0.2592
     98  O         45.5290    6.3360  179.8110 O.2   195  LYS195     -0.2718
     99  CB        47.6230    4.6270  178.0800 C.3   195  LYS195      0.0285
    100  CG        48.1570    5.8790  177.4430 C.3   195  LYS195      0.0035
    101  CD        49.5830    5.6630  177.0340 C.3   195  LYS195      0.0206
    102  CE        50.2220    6.9430  176.5080 C.3   195  LYS195      0.1093
    103  NZ        51.7350    6.8900  176.6680 N.3   195  LYS195     -0.1314
    104  N         45.0790    6.7860  177.6420 N.am  196  THR196     -0.1953
    105  CA        44.7750    8.2110  177.8900 C.3   196  THR196      0.1897
    106  C         43.3390    8.7060  177.6560 C.2   196  THR196      0.2313
    107  O         42.6860    9.2470  178.5380 O.2   196  THR196     -0.2863
    108  CB        45.6620    9.0850  177.0400 C.3   196  THR196      0.1794
    109  OG1       46.9940    8.9480  177.5030 O.3   196  THR196     -0.2208
    110  CG2       45.2420   10.5360  177.1350 C.3   196  THR196      0.0378
    111  N         40.1830    8.1260  180.2360 N.3   199  TYR199     -0.1241
    112  CA        40.0480    8.8130  181.5220 C.3   199  TYR199      0.1605
    113  C         40.2280   10.3170  181.4100 C.2   199  TYR199      0.2264
    114  O         39.8530   11.0520  182.3390 O.2   199  TYR199     -0.2867
    115  CB        40.9560    8.2270  182.6180 C.3   199  TYR199      0.0534
    116  CG        42.3430    8.7770  182.5830 C.ar  199  TYR199     -0.0201
    117  CD1       42.7050    9.8620  183.3770 C.ar  199  TYR199     -0.0009
    118  CD2       43.2940    8.2290  181.7460 C.ar  199  TYR199     -0.0009
    119  CE1       43.9690   10.3610  183.3390 C.ar  199  TYR199      0.0417
    120  CE2       44.5660    8.7470  181.6960 C.ar  199  TYR199      0.0417
    121  CZ        44.8950    9.7920  182.4820 C.ar  199  TYR199      0.1957
    122  OH        46.1690   10.2850  182.4010 O.3   199  TYR199     -0.2866
    123  N         47.2220   13.3470  173.5200 N.3   233  GLN233     -0.1245
    124  CA        48.3900   12.5120  173.7650 C.3   233  GLN233      0.1566
    125  C         49.4860   12.8240  172.7830 C.2   233  GLN233      0.2260
    126  O         50.6280   12.8730  173.1660 O.2   233  GLN233     -0.2867
    127  CB        48.0610   11.0160  173.7640 C.3   233  GLN233      0.0367
    128  CG        49.2510   10.1170  174.1160 C.3   233  GLN233      0.0905
    129  CD        49.7450   10.2770  175.5440 C.2   233  GLN233      0.2608
    130  OE1       48.9750   10.2430  176.5300 O.2   233  GLN233     -0.2717
    131  NE2       51.0550   10.4480  175.6720 N.am  233  GLN233     -0.0878
    132  N         51.3310   15.7830  174.1200 N.3   236  ASP236     -0.1225
    133  CA        52.2140   15.2400  175.1460 C.3   236  ASP236      0.1805
    134  C         53.4830   14.5530  174.5870 C.2   236  ASP236      0.2597
    135  O         54.5660   14.7070  175.1600 O.2   236  ASP236     -0.2718
    136  CB        51.4610   14.2520  176.0270 C.3   236  ASP236      0.1424
    137  CG        52.0090   14.2030  177.4290 C.2   236  ASP236      0.3668
    138  OD1       52.0820   15.2810  178.0520 O.co2 236  ASP236     -0.2456
    139  OD2       52.3600   13.1090  177.9110 O.co2 236  ASP236     -0.2456
    140  N         53.3680   13.8110  173.4830 N.am  237  ASP237     -0.1974
    141  CA        54.5490   13.1640  172.9140 C.3   237  ASP237      0.1709
    142  C         55.4410   14.2160  172.3750 C.2   237  ASP237      0.2293
    143  O         56.5530   14.2940  172.8110 O.2   237  ASP237     -0.2864
    144  CB        54.2260   12.1590  171.8200 C.3   237  ASP237      0.1436
    145  CG        53.5170   10.9580  172.3430 C.2   237  ASP237      0.3671
    146  OD1       53.1560   10.9270  173.5440 O.co2 237  ASP237     -0.2456
    147  OD2       53.3250   10.0260  171.5450 O.co2 237  ASP237     -0.2456
    148  N         57.1120   16.1210  175.3310 N.3   239  ASP239     -0.1239
    149  CA        58.1400   15.3280  176.0130 C.3   239  ASP239      0.1674
    150  C         59.4740   15.5140  175.3220 C.2   239  ASP239      0.2266
    151  O         60.5100   15.5350  175.9710 O.2   239  ASP239     -0.2867
    152  CB        57.7250   13.8350  176.0290 C.3   239  ASP239      0.1410
    153  CG        58.7980   12.9050  176.6350 C.2   239  ASP239      0.3668
    154  OD1       58.6830   12.5790  177.8450 O.co2 239  ASP239     -0.2456
    155  OD2       59.7360   12.4860  175.9050 O.co2 239  ASP239     -0.2456
    156  N         57.7220   19.1180  183.6760 N.3   249  LYS249     -0.1245
    157  CA        58.3430   17.8070  183.7540 C.3   249  LYS249      0.1561
    158  C         59.4500   17.6720  182.7110 C.2   249  LYS249      0.2260
    159  O         59.4700   18.3860  181.7190 O.2   249  LYS249     -0.2867
    160  CB        57.2850   16.6980  183.5950 C.3   249  LYS249      0.0271
    161  CG        56.4030   16.8380  182.3420 C.3   249  LYS249      0.0035
    162  CD        55.1730   15.9180  182.3660 C.3   249  LYS249      0.0206
    163  CE        54.5800   15.7240  180.9370 C.3   249  LYS249      0.1093
    164  NZ        53.1550   15.2290  180.9280 N.3   249  LYS249     -0.1314
    165  N         61.1280   11.7820  178.9950 N.3   252  THR252     -0.1203
    166  CA        61.7590   10.4770  179.1160 C.3   252  THR252      0.1994
    167  C         61.4030    9.5570  177.9360 C.2   252  THR252      0.2617
    168  O         61.7230    8.3640  177.9810 O.2   252  THR252     -0.2717
    169  CB        61.3520    9.7710  180.4260 C.3   252  THR252      0.1784
    170  OG1       59.9200    9.6920  180.4850 O.3   252  THR252     -0.2211
    171  CG2       61.9210   10.4950  181.6770 C.3   252  THR252      0.0376
    172  N         60.7640   10.0800  176.8880 N.am  253  ASP253     -0.1973
    173  CA        60.2580    9.1900  175.8450 C.3   253  ASP253      0.1709
    174  C         61.3640    8.4780  175.0120 C.2   253  ASP253      0.2293
    175  O         61.2870    7.2500  174.7640 O.2   253  ASP253     -0.2864
    176  CB        59.1910    9.8660  174.9740 C.3   253  ASP253      0.1436
    177  CG        57.8170    9.9850  175.6840 C.2   253  ASP253      0.3671
    178  OD1       57.5900    9.3350  176.7340 O.co2 253  ASP253     -0.2456
    179  OD2       56.9470   10.7390  175.1640 O.co2 253  ASP253     -0.2456
    180  N         60.0370    4.6920  174.1520 N.3   258  LYS258     -0.1245
    181  CA        58.5870    4.6160  174.0290 C.3   258  LYS258      0.1561
    182  C         58.1180    4.7070  172.5800 C.2   258  LYS258      0.2260
    183  O         58.8100    5.1990  171.6980 O.2   258  LYS258     -0.2867
    184  CB        57.8370    5.6370  174.8930 C.3   258  LYS258      0.0271
    185  CG        57.9650    5.5000  176.4090 C.3   258  LYS258      0.0035
    186  CD        57.0350    4.4530  177.0420 C.3   258  LYS258      0.0206
    187  CE        57.5000    4.1040  178.4890 C.3   258  LYS258      0.1093
    188  NZ        57.5380    5.3130  179.3630 N.3   258  LYS258     -0.1314
@<TRIPOS>BOND
     1   147   145   ar
     2   183   182    2
     3   144   145    1
     4   144   141    1
     5   145   146   ar
     6   142   143    2
     7   142   141    1
     8   182   181    1
     9   125   126    2
    10   125   124    1
    11   141   140    1
    12   140   134   am
    13   123   124    1
    14   127   124    1
    15   127   128    1
    16   181   180    1
    17   181   184    1
    18   128   129    1
    19   132   133    1
    20   134   133    1
    21   134   135    2
    22   175   174    2
    23   184   185    1
    24   176   177    1
    25   176   173    1
    26   174   173    1
    27   133   136    1
    28   179   177   ar
    29   150   151    2
    30   150   149    1
    31   148   149    1
    32   129   131   am
    33   129   130    2
    34   177   178   ar
    35   173   172    1
    36   155   153   ar
    37   149   152    1
    38   136   137    1
    39   152   153    1
    40   185   186    1
    41   102   103    1
    42   102   101    1
    43   153   154   ar
    44    87    88    1
    45    88    89    1
    46    88    91    1
    47    90    89    2
    48   172   167   am
    49    93    92   ar
    50   101   100    1
    51   108   110    1
    52   108   109    1
    53   108   105    1
    54   186   187    1
    55    95    96    1
    56   137   139   ar
    57   137   138   ar
    58   100    99    1
    59    91    92    1
    60    92    94   ar
    61   104   105    1
    62   104    97   am
    63   106   105    1
    64   106   107    2
    65   167   168    2
    66   167   166    1
    67    99    96    1
    68    96    97    1
    69   187   188    1
    70    97    98    2
    71   165   166    1
    72   166   169    1
    73    78    79    1
    74    81    80    2
    75   111   112    1
    76    80    79    1
    77   169   170    1
    78   169   171    1
    79    79    82    1
    80   164   163    1
    81   163   162    1
    82    85    84    2
    83    71    72    1
    84   113   112    1
    85   113   114    2
    86    72    73    1
    87    72    75    1
    88    74    73    2
    89   112   115    1
    90   120   118   ar
    91   120   121   ar
    92   159   158    2
    93   118   116   ar
    94    52    51   ar
    95    53    51   ar
    96    76    75    1
    97    84    83    1
    98    84    86   am
    99    82    83    1
   100    51    50    1
   101   161   162    1
   102   161   160    1
   103   122   121    1
   104   121   119   ar
   105    75    77    1
   106   116   115    1
   107   116   117   ar
   108   158   157    1
   109    36    35   ar
   110    50    47    1
   111    49    48    2
   112   119   117   ar
   113   160   157    1
   114    47    48    1
   115    47    46    1
   116   156   157    1
   117    37    35   ar
   118    35    34    1
   119    70    68    1
   120    59    58    1
   121     9     7   am
   122    34    31    1
   123    29    27    1
   124    68    69    1
   125    68    67    2
   126     7     8    2
   127     7     6    1
   128    33    32    2
   129    58    55    1
   130    55    54    1
   131    55    56    1
   132    19    17   ar
   133    19    20   ar
   134    17    15   ar
   135    31    32    1
   136    31    30    1
   137     6     5    1
   138    15    14    1
   139    15    16   ar
   140    20    21    1
   141    20    18   ar
   142    32    38   am
   143    14    11    1
   144    18    16   ar
   145    67    66    1
   146    44    43   ar
   147    27    28    1
   148    27    26    1
   149     5     2    1
   150    56    57    2
   151    38    39    1
   152    41    40    2
   153    13    12    2
   154    39    40    1
   155    39    42    1
   156    12    11    1
   157    12    22   am
   158    11    10    1
   159     2     1    1
   160     2     3    1
   161    43    42    1
   162    43    45   ar
   163    23    26    1
   164    23    22    1
   165    23    24    1
   166    66    65    1
   167    61    60    1
   168    61    62    1
   169    61    64    1
   170     4     3    2
   171    25    24    2
   172    65    64    1
   173    62    63    2
