@<TRIPOS>MOLECULE
tmp/1yhsA00.pdb
 172 162 0 0 0
SMALL
GASTEIGER

@<TRIPOS>ATOM
      1  N        -24.5270   33.8490   -4.5900 N.3    12  LEU12      -0.1231
      2  CA       -23.6180   34.9400   -4.9300 C.3    12  LEU12       0.1693
      3  C        -22.4160   34.3980   -5.7040 C.2    12  LEU12       0.2592
      4  O        -21.7900   35.1220   -6.4670 O.2    12  LEU12      -0.2718
      5  CB       -23.1450   35.6630   -3.6660 C.3    12  LEU12       0.0284
      6  CG       -24.2440   36.4410   -2.9350 C.3    12  LEU12       0.0019
      7  CD1      -23.7020   37.0210   -1.6360 C.3    12  LEU12       0.0001
      8  CD2      -24.7760   37.5520   -3.8460 C.3    12  LEU12       0.0001
      9  N        -22.1000   33.1190   -5.5100 N.am   13  GLY13      -0.1957
     10  CA       -20.9840   32.5120   -6.2210 C.3    13  GLY13       0.1869
     11  C        -20.5330   31.2510   -5.5230 C.2    13  GLY13       0.2309
     12  O        -20.9860   30.9630   -4.4160 O.2    13  GLY13      -0.2863
     13  N        -13.7650   28.2360   -2.0630 N.3    17  PHE17      -0.1241
     14  CA       -14.3030   28.5730   -0.7490 C.3    17  PHE17       0.1605
     15  C        -15.6460   27.8980   -0.4090 C.2    17  PHE17       0.2264
     16  O        -16.0830   27.9430    0.7350 O.2    17  PHE17      -0.2867
     17  CB       -14.4890   30.0900   -0.6800 C.3    17  PHE17       0.0534
     18  CG       -15.1070   30.6590   -1.9260 C.ar   17  PHE17      -0.0203
     19  CD1      -14.3000   31.1300   -2.9630 C.ar   17  PHE17      -0.0042
     20  CD2      -16.4900   30.6040   -2.1160 C.ar   17  PHE17      -0.0042
     21  CE1      -14.8610   31.5310   -4.1860 C.ar   17  PHE17      -0.0003
     22  CE2      -17.0660   30.9980   -3.3250 C.ar   17  PHE17      -0.0003
     23  CZ       -16.2490   31.4620   -4.3680 C.ar   17  PHE17      -0.0000
     24  N        -21.6780   30.4520   -1.6710 N.3    20  VAL20      -0.1245
     25  CA       -22.1550   31.5910   -0.8980 C.3    20  VAL20       0.1561
     26  C        -23.4670   32.1510   -1.4330 C.2    20  VAL20       0.2260
     27  O        -23.5800   32.4650   -2.6210 O.2    20  VAL20      -0.2867
     28  CB       -21.0880   32.7130   -0.8840 C.3    20  VAL20       0.0252
     29  CG1      -21.5650   33.9030   -0.0400 C.3    20  VAL20       0.0019
     30  CG2      -19.7840   32.1640   -0.3380 C.3    20  VAL20       0.0019
     31  N        -24.7650   37.0460    4.2920 N.3    33  ALA33      -0.1245
     32  CA       -24.2280   36.1800    3.2520 C.3    33  ALA33       0.1562
     33  C        -24.0530   34.8540    3.9560 C.2    33  ALA33       0.2260
     34  O        -23.4920   34.7980    5.0430 O.2    33  ALA33      -0.2867
     35  CB       -22.8910   36.6930    2.7350 C.3    33  ALA33       0.0290
     36  N        -22.4160   31.1840    3.8470 N.3    35  LYS35      -0.1245
     37  CA       -21.3820   30.3700    3.2280 C.3    35  LYS35       0.1561
     38  C        -21.4300   28.9100    3.6600 C.2    35  LYS35       0.2260
     39  O        -21.4230   28.5960    4.8480 O.2    35  LYS35      -0.2867
     40  CB       -20.0020   30.9520    3.5390 C.3    35  LYS35       0.0271
     41  CG       -18.9180   30.3830    2.6550 C.3    35  LYS35       0.0035
     42  CD       -17.6170   31.1470    2.8100 C.3    35  LYS35       0.0206
     43  CE       -16.7390   30.5210    3.8470 C.3    35  LYS35       0.1093
     44  NZ       -16.0950   29.2920    3.3080 N.3    35  LYS35      -0.1314
     45  N        -11.0400   28.7850    9.1290 N.3    53  GLU53      -0.1245
     46  CA       -11.7150   30.0090    8.7500 C.3    53  GLU53       0.1567
     47  C        -12.5470   30.5910    9.8970 C.2    53  GLU53       0.2260
     48  O        -12.5770   31.8060   10.0950 O.2    53  GLU53      -0.2867
     49  CB       -12.5850   29.6990    7.5490 C.3    53  GLU53       0.0388
     50  CG       -13.2280   30.8680    6.9020 C.3    53  GLU53       0.1160
     51  CD       -13.9970   30.4460    5.6630 C.2    53  GLU53       0.3649
     52  OE1      -14.5370   31.3400    4.9850 O.co2  53  GLU53      -0.2457
     53  OE2      -14.0530   29.2260    5.3650 O.co2  53  GLU53      -0.2457
     54  N        -15.0910   41.6720    6.5280 N.3    68  ILE68      -0.1245
     55  CA       -16.4370   41.1290    6.6960 C.3    68  ILE68       0.1561
     56  C        -16.4750   40.2850    7.9620 C.2    68  ILE68       0.2260
     57  O        -15.6730   39.3590    8.1350 O.2    68  ILE68      -0.2867
     58  CB       -16.8550   40.2570    5.4870 C.3    68  ILE68       0.0252
     59  CG1      -17.2500   41.1640    4.3190 C.3    68  ILE68       0.0019
     60  CG2      -17.9800   39.2840    5.8830 C.3    68  ILE68       0.0019
     61  CD1      -18.2540   42.2190    4.6720 C.3    68  ILE68       0.0001
     62  N        -22.3650   35.4530    7.4230 N.3    84  LEU84      -0.1231
     63  CA       -21.4820   36.5970    7.2710 C.3    84  LEU84       0.1693
     64  C        -22.2210   37.8990    7.0820 C.2    84  LEU84       0.2592
     65  O        -23.3190   37.9370    6.5430 O.2    84  LEU84      -0.2718
     66  CB       -20.5760   36.3800    6.0580 C.3    84  LEU84       0.0284
     67  CG       -19.1880   35.7620    6.1740 C.3    84  LEU84       0.0019
     68  CD1      -18.9740   35.0440    7.4720 C.3    84  LEU84       0.0001
     69  CD2      -18.9940   34.8510    4.9970 C.3    84  LEU84       0.0001
     70  N        -21.5860   38.9740    7.5130 N.am   85  GLU85      -0.1966
     71  CA       -22.1240   40.3130    7.3630 C.3    85  GLU85       0.1733
     72  C        -22.2280   40.5820    5.8580 C.2    85  GLU85       0.2616
     73  O        -21.4280   40.0570    5.0870 O.2    85  GLU85      -0.2715
     74  CB       -21.1440   41.2930    8.0140 C.3    85  GLU85       0.0429
     75  CG       -21.4100   42.7670    7.8120 C.3    85  GLU85       0.1163
     76  CD       -20.2320   43.6320    8.2670 C.2    85  GLU85       0.3649
     77  OE1      -19.3840   43.1240    9.0370 O.co2  85  GLU85      -0.2457
     78  OE2      -20.1590   44.8200    7.8560 O.co2  85  GLU85      -0.2457
     79  N        -23.2270   41.3560    5.4350 N.am   86  ARG86      -0.1964
     80  CA       -23.3700   41.7030    4.0190 C.3    86  ARG86       0.1714
     81  C        -23.8130   43.1440    3.7980 C.2    86  ARG86       0.2458
     82  O        -24.9700   43.4920    4.0200 O.2    86  ARG86      -0.2730
     83  CB       -24.3580   40.7900    3.2770 C.3    86  ARG86       0.0347
     84  CG       -24.6070   41.2570    1.8200 C.3    86  ARG86       0.0492
     85  CD       -25.4130   40.2660    0.9600 C.3    86  ARG86       0.2205
     86  NE       -26.7960   40.0600    1.4060 N.pl3  86  ARG86      -0.0865
     87  CZ       -27.8330   40.8250    1.0620 C.cat  86  ARG86       0.5346
     88  NH1      -27.6700   41.8700    0.2590 N.pl3  86  ARG86       0.1354
     89  NH2      -29.0430   40.5360    1.5250 N.pl3  86  ARG86       0.1354
     90  N        -22.8880   44.0080    3.3680 N.am   87  PRO87      -0.2727
     91  CA       -23.2760   45.4010    3.1330 C.3    87  PRO87       0.1402
     92  C        -24.0600   45.4800    1.8230 C.2    87  PRO87       0.2269
     93  O        -24.0870   44.5180    1.0540 O.2    87  PRO87      -0.2865
     94  CB       -21.9300   46.1240    3.0700 C.3    87  PRO87       0.0296
     95  CG       -21.0020   45.0740    2.5110 C.3    87  PRO87       0.0237
     96  CD       -21.4250   43.8270    3.2510 C.3    87  PRO87       0.0939
     97  N        -23.3880   46.4390   -3.0840 N.3    90  VAL90      -0.1231
     98  CA       -21.9880   46.0660   -3.1700 C.3    90  VAL90       0.1692
     99  C        -21.5990   45.4950   -4.5180 C.2    90  VAL90       0.2592
    100  O        -22.4370   44.9400   -5.2360 O.2    90  VAL90      -0.2718
    101  CB       -21.6510   44.9890   -2.0930 C.3    90  VAL90       0.0266
    102  CG1      -20.2390   44.4370   -2.2960 C.3    90  VAL90       0.0020
    103  CG2      -21.7980   45.5810   -0.7140 C.3    90  VAL90       0.0020
    104  N        -20.3200   45.6490   -4.8450 N.am   91  GLN91      -0.1966
    105  CA       -19.7260   45.1060   -6.0560 C.3    91  GLN91       0.1733
    106  C        -18.3050   44.7190   -5.6330 C.2    91  GLN91       0.2616
    107  O        -17.6630   45.4800   -4.9100 O.2    91  GLN91      -0.2715
    108  CB       -19.6520   46.1500   -7.1740 C.3    91  GLN91       0.0408
    109  CG       -19.2550   45.5120   -8.5000 C.3    91  GLN91       0.0908
    110  CD       -19.1740   46.4880   -9.6550 C.2    91  GLN91       0.2608
    111  OE1      -19.4390   46.1240  -10.8100 O.2    91  GLN91      -0.2717
    112  NE2      -18.7940   47.7240   -9.3640 N.am   91  GLN91      -0.0878
    113  N        -17.8130   43.5500   -6.0460 N.am   92  ASP92      -0.1971
    114  CA       -16.4560   43.1860   -5.6590 C.3    92  ASP92       0.1709
    115  C        -15.4730   44.0100   -6.5040 C.2    92  ASP92       0.2293
    116  O        -15.8570   44.5450   -7.5480 O.2    92  ASP92      -0.2864
    117  CB       -16.2300   41.6600   -5.7660 C.3    92  ASP92       0.1436
    118  CG       -16.1630   41.1350   -7.1970 C.2    92  ASP92       0.3671
    119  OD1      -16.2620   39.9000   -7.3400 O.co2  92  ASP92      -0.2456
    120  OD2      -15.9940   41.9050   -8.1690 O.co2  92  ASP92      -0.2456
    121  N        -13.0210   43.1050   -8.2890 N.3    94  PHE94      -0.1241
    122  CA       -12.7490   42.5110   -9.5950 C.3    94  PHE94       0.1605
    123  C        -13.7270   43.0410  -10.6410 C.2    94  PHE94       0.2264
    124  O        -13.3130   43.5260  -11.6960 O.2    94  PHE94      -0.2867
    125  CB       -12.8490   40.9900   -9.5210 C.3    94  PHE94       0.0534
    126  CG       -12.5590   40.3030  -10.8220 C.ar   94  PHE94      -0.0203
    127  CD1      -11.2550   40.0200  -11.2000 C.ar   94  PHE94      -0.0042
    128  CD2      -13.5970   39.9430  -11.6770 C.ar   94  PHE94      -0.0042
    129  CE1      -10.9860   39.3870  -12.4170 C.ar   94  PHE94      -0.0003
    130  CE2      -13.3390   39.3100  -12.8960 C.ar   94  PHE94      -0.0003
    131  CZ       -12.0330   39.0320  -13.2650 C.ar   94  PHE94      -0.0000
    132  N        -10.7680   39.9410   -6.1860 N.3   134  GLU134     -0.1231
    133  CA       -11.9290   39.0700   -6.0220 C.3   134  GLU134      0.1699
    134  C        -12.3540   38.8970   -4.5760 C.2   134  GLU134      0.2592
    135  O        -13.4810   38.4730   -4.3090 O.2   134  GLU134     -0.2718
    136  CB       -11.6490   37.6800   -6.5820 C.3   134  GLU134      0.0402
    137  CG       -11.6080   37.5920   -8.0870 C.3   134  GLU134      0.1161
    138  CD       -11.2090   36.2120   -8.5440 C.2   134  GLU134      0.3649
    139  OE1      -10.0980   35.7770   -8.2020 O.co2 134  GLU134     -0.2457
    140  OE2      -12.0010   35.5460   -9.2390 O.co2 134  GLU134     -0.2457
    141  N        -11.4450   39.1920   -3.6490 N.am  135  ASN135     -0.1974
    142  CA       -11.7390   39.0550   -2.2330 C.3   135  ASN135      0.1688
    143  C        -11.8960   40.3770   -1.5280 C.2   135  ASN135      0.2292
    144  O        -11.6750   40.4650   -0.3200 O.2   135  ASN135     -0.2864
    145  CB       -10.6600   38.2210   -1.5380 C.3   135  ASN135      0.1181
    146  CG       -10.6760   36.7960   -2.0030 C.2   135  ASN135      0.2629
    147  OD1      -11.7460   36.2770   -2.3360 O.2   135  ASN135     -0.2716
    148  ND2       -9.5100   36.1430   -2.0340 N.am  135  ASN135     -0.0877
    149  N        -14.7150   43.5560   -1.2120 N.3   137  LEU137     -0.1245
    150  CA       -16.0580   44.0650   -1.4710 C.3   137  LEU137      0.1561
    151  C        -16.0590   45.5810   -1.3690 C.2   137  LEU137      0.2260
    152  O        -15.3700   46.1540   -0.5090 O.2   137  LEU137     -0.2867
    153  CB       -17.0350   43.5090   -0.4400 C.3   137  LEU137      0.0270
    154  CG       -17.8550   42.2690   -0.7930 C.3   137  LEU137      0.0019
    155  CD1      -17.1070   41.3810   -1.7800 C.3   137  LEU137      0.0001
    156  CD2      -18.2150   41.5400    0.4880 C.3   137  LEU137      0.0001
    157  N        -12.8300   39.7080    2.2630 N.3   148  ILE148     -0.1231
    158  CA       -13.5930   38.4800    2.4090 C.3   148  ILE148      0.1692
    159  C        -12.7530   37.2610    2.0860 C.2   148  ILE148      0.2592
    160  O        -11.6790   37.3630    1.4880 O.2   148  ILE148     -0.2718
    161  CB       -14.8140   38.4300    1.4690 C.3   148  ILE148      0.0266
    162  CG1      -14.3390   38.5560    0.0190 C.3   148  ILE148      0.0019
    163  CG2      -15.8380   39.4960    1.8690 C.3   148  ILE148      0.0020
    164  CD1      -15.4270   38.4290   -0.9800 C.3   148  ILE148      0.0001
    165  N        -13.2770   36.1100    2.4900 N.am  149  ASP149     -0.1974
    166  CA       -12.6650   34.8130    2.2710 C.3   149  ASP149      0.1709
    167  C        -11.3380   34.5570    2.9700 C.2   149  ASP149      0.2293
    168  O        -10.2520   34.7730    2.4090 O.2   149  ASP149     -0.2864
    169  CB       -12.5050   34.5320    0.7760 C.3   149  ASP149      0.1436
    170  CG       -12.1510   33.0710    0.5000 C.2   149  ASP149      0.3671
    171  OD1      -12.3480   32.2440    1.4190 O.co2 149  ASP149     -0.2456
    172  OD2      -11.6980   32.7420   -0.6240 O.co2 149  ASP149     -0.2456
@<TRIPOS>BOND
     1   131   130   ar
     2   131   129   ar
     3   130   128   ar
     4   129   127   ar
     5   124   123    2
     6   128   126   ar
     7   127   126   ar
     8   126   125    1
     9   111   110    2
    10   123   122    1
    11   110   112   am
    12   110   109    1
    13   122   125    1
    14   122   121    1
    15   140   138   ar
    16   138   139   ar
    17   138   137    1
    18   109   108    1
    19   120   118   ar
    20   137   136    1
    21   116   115    2
    22   119   118   ar
    23   118   117    1
    24   108   105    1
    25   136   133    1
    26   115   114    1
    27     4     3    2
    28    10    11    1
    29    10     9    1
    30   132   133    1
    31   105   106    1
    32   105   104    1
    33   113   114    1
    34   113   106   am
    35   133   134    1
    36   117   114    1
    37     3     9   am
    38     3     2    1
    39   106   107    2
    40    11    12    2
    41   100    99    2
    42     2     1    1
    43     2     5    1
    44   104    99   am
    45   134   135    2
    46   134   141   am
    47    99    98    1
    48    23    21   ar
    49    23    22   ar
    50    21    19   ar
    51     8     6    1
    52     5     6    1
    53   141   142    1
    54    22    20   ar
    55    98    97    1
    56    98   101    1
    57    19    18   ar
    58     6     7    1
    59    27    26    2
    60   147   146    2
    61   102   101    1
    62   142   145    1
    63   142   143    1
    64    20    18   ar
    65   101   103    1
    66    13    14    1
    67   148   146   am
    68   146   145    1
    69    18    17    1
    70   155   154    1
    71    24    25    1
    72   143   144    2
    73   150   151    1
    74   150   149    1
    75   150   153    1
    76    26    25    1
    77   151   152    2
    78   164   162    1
    79    25    28    1
    80    28    30    1
    81    28    29    1
    82   154   153    1
    83   154   156    1
    84    14    17    1
    85    14    15    1
    86   172   170   ar
    87    15    16    2
    88   162   161    1
    89    88    87    1
    90   170   169    1
    91   170   171   ar
    92   169   166    1
    93    85    86    1
    94    85    84    1
    95    93    92    2
    96    87    86    2
    97    87    89    1
    98   161   163    1
    99   161   158    1
   100   160   159    2
   101    84    83    1
   102    92    91    1
   103   159   158    1
   104   159   165   am
   105   157   158    1
   106   166   165    1
   107   166   167    1
   108   168   167    2
   109    95    94    1
   110    95    96    1
   111    41    42    1
   112    41    40    1
   113    35    32    1
   114    42    43    1
   115    94    91    1
   116    91    90    1
   117    37    40    1
   118    37    38    1
   119    37    36    1
   120    96    90    1
   121    32    33    1
   122    32    31    1
   123    83    80    1
   124    44    43    1
   125    90    81   am
   126    38    39    2
   127    81    80    1
   128    81    82    2
   129    33    34    2
   130    80    79    1
   131    59    61    1
   132    59    58    1
   133    52    51   ar
   134    69    67    1
   135    73    72    2
   136    53    51   ar
   137    79    72   am
   138    58    60    1
   139    58    55    1
   140    51    50    1
   141    72    71    1
   142    66    67    1
   143    66    63    1
   144    67    68    1
   145    54    55    1
   146    65    64    2
   147    55    56    1
   148    50    49    1
   149    64    63    1
   150    64    70   am
   151    63    62    1
   152    71    70    1
   153    71    74    1
   154    49    46    1
   155    75    74    1
   156    75    76    1
   157    78    76   ar
   158    56    57    2
   159    76    77   ar
   160    46    45    1
   161    46    47    1
   162    47    48    2
