@<TRIPOS>MOLECULE
tmp/1yhuM00.pdb
 225 215 0 0 0
SMALL
GASTEIGER

@<TRIPOS>ATOM
      1  N         62.3980  177.0520   14.9650 N.3    32  TRP32      -0.1241
      2  CA        63.3530  177.7560   15.8010 C.3    32  TRP32       0.1605
      3  C         64.3500  176.8820   16.5360 C.2    32  TRP32       0.2264
      4  O         65.4900  177.3080   16.7600 O.2    32  TRP32      -0.2867
      5  CB        62.6380  178.7010   16.7680 C.3    32  TRP32       0.0550
      6  CG        62.1810  179.9370   16.0680 C.ar   32  TRP32       0.0003
      7  CD1       60.9480  180.1740   15.5360 C.ar   32  TRP32       0.0946
      8  CD2       63.0000  181.0340   15.6870 C.ar   32  TRP32       0.0152
      9  NE1       60.9530  181.3490   14.8350 N.ar   32  TRP32      -0.2442
     10  CE2       62.2040  181.9000   14.9120 C.ar   32  TRP32       0.0810
     11  CE3       64.3360  181.3680   15.9180 C.ar   32  TRP32       0.0012
     12  CZ2       62.7020  183.0850   14.3620 C.ar   32  TRP32       0.0191
     13  CZ3       64.8340  182.5410   15.3720 C.ar   32  TRP32       0.0001
     14  CH2       64.0150  183.3890   14.6000 C.ar   32  TRP32       0.0015
     15  N         66.9190  176.5950   14.0050 N.3    35  VAL35      -0.1245
     16  CA        67.6750  177.8250   13.8480 C.3    35  VAL35       0.1561
     17  C         68.7670  177.9650   14.8910 C.2    35  VAL35       0.2260
     18  O         69.9100  178.2750   14.5580 O.2    35  VAL35      -0.2867
     19  CB        66.7840  179.0590   13.9720 C.3    35  VAL35       0.0252
     20  CG1       67.6350  180.3320   13.8760 C.3    35  VAL35       0.0019
     21  CG2       65.7070  179.0300   12.8900 C.3    35  VAL35       0.0019
     22  N         73.3380  182.6780   17.3350 N.3    42  ALA42      -0.1245
     23  CA        72.2640  183.5560   16.8980 C.3    42  ALA42       0.1562
     24  C         71.1810  183.6860   17.9520 C.2    42  ALA42       0.2260
     25  O         70.2820  184.5130   17.8230 O.2    42  ALA42      -0.2867
     26  CB        71.6650  183.0380   15.6030 C.3    42  ALA42       0.0290
     27  N         70.8120  186.9510   19.9120 N.3    45  ILE45      -0.1231
     28  CA        70.1910  188.0060   19.1370 C.3    45  ILE45       0.1692
     29  C         68.7720  188.2620   19.5870 C.2    45  ILE45       0.2592
     30  O         68.3100  189.3990   19.5870 O.2    45  ILE45      -0.2718
     31  CB        70.1520  187.6480   17.6380 C.3    45  ILE45       0.0266
     32  CG1       71.5830  187.5050   17.1080 C.3    45  ILE45       0.0019
     33  CG2       69.3800  188.7180   16.8560 C.3    45  ILE45       0.0020
     34  CD1       71.6440  187.0550   15.6680 C.3    45  ILE45       0.0001
     35  N         68.0840  187.2030   19.9800 N.am   46  PHE46      -0.1976
     36  CA        66.6970  187.3290   20.3910 C.3    46  PHE46       0.1639
     37  C         66.4290  187.3970   21.8940 C.2    46  PHE46       0.2290
     38  O         65.3570  186.9850   22.3410 O.2    46  PHE46      -0.2864
     39  CB        65.8930  186.1780   19.8000 C.3    46  PHE46       0.0560
     40  CG        66.0570  186.0240   18.3230 C.ar   46  PHE46      -0.0200
     41  CD1       67.1750  185.3840   17.7980 C.ar   46  PHE46      -0.0042
     42  CD2       65.0900  186.5180   17.4500 C.ar   46  PHE46      -0.0042
     43  CE1       67.3300  185.2330   16.4180 C.ar   46  PHE46      -0.0003
     44  CE2       65.2300  186.3750   16.0690 C.ar   46  PHE46      -0.0003
     45  CZ        66.3520  185.7310   15.5520 C.ar   46  PHE46      -0.0000
     46  N         65.8400  189.9180   23.4620 N.3    48  SER48      -0.1202
     47  CA        64.8240  190.9520   23.6010 C.3    48  SER48       0.2020
     48  C         63.4540  190.2800   23.7060 C.2    48  SER48       0.2618
     49  O         62.5130  190.8440   24.2490 O.2    48  SER48      -0.2717
     50  CB        64.8520  191.8740   22.3790 C.3    48  SER48       0.2103
     51  OG        66.1780  192.2550   22.0600 O.3    48  SER48      -0.2182
     52  N         63.3560  189.0630   23.1830 N.am   49  VAL49      -0.1979
     53  CA        62.1070  188.3200   23.1970 C.3    49  VAL49       0.1595
     54  C         62.2380  187.0730   24.0530 C.2    49  VAL49       0.2287
     55  O         61.6350  186.0340   23.7770 O.2    49  VAL49      -0.2864
     56  CB        61.6570  187.9190   21.7540 C.3    49  VAL49       0.0276
     57  CG1       61.3470  189.1650   20.9380 C.3    49  VAL49       0.0022
     58  CG2       62.7340  187.0880   21.0730 C.3    49  VAL49       0.0022
     59  N         56.9330  185.7020   19.7930 N.3    62  HIS62      -0.1241
     60  CA        57.8540  186.0800   18.7530 C.3    62  HIS62       0.1621
     61  C         57.6990  185.0990   17.6160 C.2    62  HIS62       0.2264
     62  O         57.4450  185.4810   16.4830 O.2    62  HIS62      -0.2867
     63  CB        59.2720  186.0150   19.2720 C.3    62  HIS62       0.0745
     64  CG        60.2960  186.2220   18.2140 C.ar   62  HIS62       0.0817
     65  ND1       60.3800  187.3550   17.4430 N.ar   62  HIS62      -0.2268
     66  CD2       61.2830  185.4070   17.7780 C.ar   62  HIS62       0.1154
     67  CE1       61.3890  187.1900   16.5830 C.ar   62  HIS62       0.1986
     68  NE2       61.9680  186.0230   16.7510 N.ar   62  HIS62      -0.2212
     69  N         54.8090  185.7470   15.5700 N.3    65  ARG65      -0.1231
     70  CA        54.9590  186.8900   14.6800 C.3    65  ARG65       0.1694
     71  C         55.8110  186.5720   13.4530 C.2    65  ARG65       0.2591
     72  O         55.4080  186.8660   12.3250 O.2    65  ARG65      -0.2718
     73  CB        55.5650  188.0760   15.4390 C.3    65  ARG65       0.0321
     74  CG        54.6050  188.8030   16.3700 C.3    65  ARG65       0.0489
     75  CD        55.2240  190.0920   16.8640 C.3    65  ARG65       0.2205
     76  NE        56.3140  189.8440   17.7940 N.pl3  65  ARG65      -0.0865
     77  CZ        56.1420  189.6300   19.0910 C.cat  65  ARG65       0.5346
     78  NH1       54.9220  189.6430   19.6090 N.pl3  65  ARG65       0.1354
     79  NH2       57.1870  189.3880   19.8660 N.pl3  65  ARG65       0.1354
     80  N         56.9830  185.9770   13.6620 N.am   66  VAL66      -0.1980
     81  CA        57.8360  185.6640   12.5310 C.3    66  VAL66       0.1595
     82  C         57.1390  184.6960   11.5830 C.2    66  VAL66       0.2287
     83  O         57.1800  184.8660   10.3710 O.2    66  VAL66      -0.2864
     84  CB        59.1920  185.0960   12.9860 C.3    66  VAL66       0.0276
     85  CG1       58.9810  184.0240   14.0160 C.3    66  VAL66       0.0022
     86  CG2       59.9530  184.5480   11.7890 C.3    66  VAL66       0.0022
     87  N         54.7860  186.5180    9.5930 N.3    69  GLY69      -0.1210
     88  CA        55.4350  187.2760    8.5510 C.3    69  GLY69       0.1956
     89  C         55.6960  186.3170    7.4060 C.2    69  GLY69       0.2611
     90  O         55.2800  186.5540    6.2660 O.2    69  GLY69      -0.2717
     91  N         56.3810  185.2190    7.7230 N.am   70  LEU70      -0.1979
     92  CA        56.6980  184.1940    6.7400 C.3    70  LEU70       0.1596
     93  C         55.4840  183.8150    5.9090 C.2    70  LEU70       0.2287
     94  O         55.5660  183.7250    4.6910 O.2    70  LEU70      -0.2864
     95  CB        57.2430  182.9570    7.4340 C.3    70  LEU70       0.0297
     96  CG        58.6940  182.6910    7.0470 C.3    70  LEU70       0.0022
     97  CD1       59.1980  181.4330    7.7580 C.3    70  LEU70       0.0001
     98  CD2       58.7790  182.5350    5.5310 C.3    70  LEU70       0.0001
     99  N         52.3920  185.5040    5.4820 N.3    72  ARG72      -0.1231
    100  CA        51.8960  186.6150    4.6780 C.3    72  ARG72       0.1694
    101  C         52.7950  186.9580    3.5060 C.2    72  ARG72       0.2591
    102  O         52.3140  187.4370    2.4860 O.2    72  ARG72      -0.2718
    103  CB        51.6510  187.8690    5.5380 C.3    72  ARG72       0.0321
    104  CG        52.8780  188.6580    5.9880 C.3    72  ARG72       0.0489
    105  CD        52.4460  190.0580    6.4650 C.3    72  ARG72       0.2205
    106  NE        53.5800  190.9540    6.7060 N.pl3  72  ARG72      -0.0865
    107  CZ        54.2380  191.0380    7.8540 C.cat  72  ARG72       0.5346
    108  NH1       53.8670  190.2810    8.8770 N.pl3  72  ARG72       0.1354
    109  NH2       55.2650  191.8700    7.9710 N.pl3  72  ARG72       0.1354
    110  N         54.0910  186.7090    3.6410 N.am   73  VAL73      -0.1980
    111  CA        55.0250  186.9900    2.5580 C.3    73  VAL73       0.1595
    112  C         54.9440  185.9020    1.4940 C.2    73  VAL73       0.2287
    113  O         54.7390  186.1870    0.3180 O.2    73  VAL73      -0.2864
    114  CB        56.4600  187.0830    3.0870 C.3    73  VAL73       0.0276
    115  CG1       57.4510  187.1700    1.9390 C.3    73  VAL73       0.0022
    116  CG2       56.5800  188.3040    3.9700 C.3    73  VAL73       0.0022
    117  N         59.1940  194.7960    6.1570 N.3    90  LEU90      -0.1245
    118  CA        59.9970  193.9350    7.0020 C.3    90  LEU90       0.1561
    119  C         61.4510  194.4230    7.0510 C.2    90  LEU90       0.2260
    120  O         62.1090  194.3320    8.0930 O.2    90  LEU90      -0.2867
    121  CB        59.9440  192.4960    6.4810 C.3    90  LEU90       0.0270
    122  CG        58.6290  191.7820    6.7410 C.3    90  LEU90       0.0019
    123  CD1       58.5940  190.4920    5.9780 C.3    90  LEU90       0.0001
    124  CD2       58.4970  191.5340    8.2170 C.3    90  LEU90       0.0001
    125  N         61.8630  196.9750    9.5020 N.3    93  GLN93      -0.1231
    126  CA        61.8340  196.4050   10.8440 C.3    93  GLN93       0.1698
    127  C         63.1360  195.7370   11.2400 C.2    93  GLN93       0.2592
    128  O         63.4680  195.6860   12.4190 O.2    93  GLN93      -0.2718
    129  CB        60.6880  195.3970   10.9680 C.3    93  GLN93       0.0381
    130  CG        59.3320  195.9830   10.6560 C.3    93  GLN93       0.0905
    131  CD        58.2020  195.0760   11.0500 C.2    93  GLN93       0.2608
    132  OE1       58.0720  193.9680   10.5390 O.2    93  GLN93      -0.2717
    133  NE2       57.3680  195.5460   11.9670 N.am   93  GLN93      -0.0878
    134  N         63.8800  195.2360   10.2610 N.am   94  HIS94      -0.1976
    135  CA        65.1370  194.5530   10.5480 C.3    94  HIS94       0.1656
    136  C         66.4120  195.3760   10.3710 C.2    94  HIS94       0.2291
    137  O         67.4270  195.1030   11.0120 O.2    94  HIS94      -0.2864
    138  CB        65.2520  193.2840    9.6930 C.3    94  HIS94       0.0771
    139  CG        64.2860  192.2030   10.0710 C.ar   94  HIS94       0.0820
    140  ND1       62.9330  192.2530    9.8210 N.ar   94  HIS94      -0.2267
    141  CD2       64.5000  191.0220   10.7070 C.ar   94  HIS94       0.1154
    142  CE1       62.3890  191.1300   10.3030 C.ar   94  HIS94       0.1986
    143  NE2       63.3040  190.3540   10.8500 N.ar   94  HIS94      -0.2212
    144  N         68.3510  196.6230   13.3600 N.3    97  ARG97      -0.1245
    145  CA        68.9140  195.6140   14.2540 C.3    97  ARG97       0.1563
    146  C         70.3100  195.2030   13.8190 C.2    97  ARG97       0.2260
    147  O         70.9750  194.4250   14.5070 O.2    97  ARG97      -0.2867
    148  CB        68.0200  194.3740   14.3220 C.3    97  ARG97       0.0307
    149  CG        67.2160  194.2430   15.6030 C.3    97  ARG97       0.0489
    150  CD        65.9020  194.9660   15.5010 C.3    97  ARG97       0.2205
    151  NE        65.1440  194.8620   16.7390 N.pl3  97  ARG97      -0.0865
    152  CZ        63.8490  195.1410   16.8420 C.cat  97  ARG97       0.5346
    153  NH1       63.1660  195.5350   15.7760 N.pl3  97  ARG97       0.1354
    154  NH2       63.2410  195.0330   18.0150 N.pl3  97  ARG97       0.1354
    155  N         71.6920  193.1170   11.4950 N.3    99  ILE99      -0.1245
    156  CA        71.8980  191.6730   11.5530 C.3    99  ILE99       0.1561
    157  C         72.7510  191.1820   10.4030 C.2    99  ILE99       0.2260
    158  O         72.5220  191.5630    9.2550 O.2    99  ILE99      -0.2867
    159  CB        70.5660  190.9250   11.4860 C.3    99  ILE99       0.0252
    160  CG1       69.5690  191.5270   12.4720 C.3    99  ILE99       0.0019
    161  CG2       70.7970  189.4700   11.8110 C.3    99  ILE99       0.0019
    162  CD1       68.1730  190.9970   12.3090 C.3    99  ILE99       0.0001
    163  N         73.0750  185.1590    8.7600 N.3   103  ASN103     -0.1225
    164  CA        72.0680  184.5370    9.5940 C.3   103  ASN103      0.1785
    165  C         70.8420  184.1700    8.7800 C.2   103  ASN103      0.2597
    166  O         70.2200  183.1360    9.0290 O.2   103  ASN103     -0.2718
    167  CB        71.6750  185.4610   10.7400 C.3   103  ASN103      0.1169
    168  CG        72.6790  185.4310   11.8750 C.2   103  ASN103      0.2627
    169  OD1       72.7750  186.3740   12.6530 O.2   103  ASN103     -0.2716
    170  ND2       73.4260  184.3380   11.9830 N.am  103  ASN103     -0.0877
    171  N         70.4920  185.0000    7.8030 N.am  104  PHE104     -0.1976
    172  CA        69.3300  184.7020    6.9760 C.3   104  PHE104      0.1639
    173  C         69.5360  183.4690    6.1200 C.2   104  PHE104      0.2290
    174  O         68.5790  182.8890    5.5950 O.2   104  PHE104     -0.2864
    175  CB        68.9730  185.8870    6.0960 C.3   104  PHE104      0.0560
    176  CG        68.0700  186.8700    6.7680 C.ar  104  PHE104     -0.0200
    177  CD1       68.5680  187.7610    7.7060 C.ar  104  PHE104     -0.0042
    178  CD2       66.7060  186.8740    6.4950 C.ar  104  PHE104     -0.0042
    179  CE1       67.7170  188.6400    8.3600 C.ar  104  PHE104     -0.0003
    180  CE2       65.8540  187.7450    7.1410 C.ar  104  PHE104     -0.0003
    181  CZ        66.3580  188.6290    8.0750 C.ar  104  PHE104     -0.0000
    182  N         68.8550  180.6220    8.4720 N.3   107  PHE107     -0.1241
    183  CA        67.4110  180.5000    8.4900 C.3   107  PHE107      0.1605
    184  C         66.9610  179.6330    7.3190 C.2   107  PHE107      0.2264
    185  O         66.3090  178.6100    7.5110 O.2   107  PHE107     -0.2867
    186  CB        66.7570  181.8850    8.3920 C.3   107  PHE107      0.0534
    187  CG        65.3390  181.9370    8.9110 C.ar  107  PHE107     -0.0203
    188  CD1       65.0910  182.0570   10.2680 C.ar  107  PHE107     -0.0042
    189  CD2       64.2530  181.8790    8.0370 C.ar  107  PHE107     -0.0042
    190  CE1       63.7900  182.1210   10.7430 C.ar  107  PHE107     -0.0003
    191  CE2       62.9480  181.9410    8.5100 C.ar  107  PHE107     -0.0003
    192  CZ        62.7200  182.0640    9.8670 C.ar  107  PHE107     -0.0000
    193  N         62.7880  181.3530   -1.5330 N.3   132  TYR132     -0.1241
    194  CA        63.0830  181.8040   -0.1930 C.3   132  TYR132      0.1605
    195  C         63.9700  183.0170   -0.3600 C.2   132  TYR132      0.2264
    196  O         63.8360  184.0150    0.3500 O.2   132  TYR132     -0.2867
    197  CB        63.8440  180.7690    0.6100 C.3   132  TYR132      0.0534
    198  CG        64.3980  181.3760    1.8690 C.ar  132  TYR132     -0.0201
    199  CD1       63.5790  181.5970    2.9800 C.ar  132  TYR132     -0.0009
    200  CD2       65.7350  181.7900    1.9370 C.ar  132  TYR132     -0.0009
    201  CE1       64.0860  182.2160    4.1340 C.ar  132  TYR132      0.0417
    202  CE2       66.2480  182.4060    3.0750 C.ar  132  TYR132      0.0417
    203  CZ        65.4270  182.6100    4.1670 C.ar  132  TYR132      0.1957
    204  OH        65.9730  183.1630    5.2960 O.3   132  TYR132     -0.2866
    205  N         62.5850  186.4240   -0.9220 N.3   135  ILE135     -0.1231
    206  CA        62.1800  187.0370    0.3260 C.3   135  ILE135      0.1692
    207  C         63.3920  187.5450    1.0950 C.2   135  ILE135      0.2591
    208  O         63.4090  188.6790    1.5410 O.2   135  ILE135     -0.2718
    209  CB        61.3780  186.0390    1.1800 C.3   135  ILE135      0.0266
    210  CG1       60.1630  185.5720    0.3840 C.3   135  ILE135      0.0019
    211  CG2       60.9420  186.6850    2.4980 C.3   135  ILE135      0.0020
    212  CD1       59.3360  184.5260    1.0720 C.3   135  ILE135      0.0001
    213  N         64.4090  186.7120    1.2540 N.am  136  ALA136     -0.1980
    214  CA        65.6040  187.1380    1.9720 C.3   136  ALA136      0.1597
    215  C         66.1730  188.4050    1.3210 C.2   136  ALA136      0.2287
    216  O         66.5380  189.3590    2.0180 O.2   136  ALA136     -0.2864
    217  CB        66.6480  186.0220    1.9730 C.3   136  ALA136      0.0319
    218  N         64.1930  191.3900    2.1920 N.3   139  ILE139     -0.1245
    219  CA        64.3160  191.7940    3.5880 C.3   139  ILE139      0.1561
    220  C         65.6890  192.3460    3.9370 C.2   139  ILE139      0.2260
    221  O         65.8100  193.2160    4.7940 O.2   139  ILE139     -0.2867
    222  CB        63.9950  190.6210    4.5510 C.3   139  ILE139      0.0252
    223  CG1       62.5550  190.1400    4.3420 C.3   139  ILE139      0.0019
    224  CG2       64.1600  191.0660    5.9990 C.3   139  ILE139      0.0019
    225  CD1       62.1860  188.9140    5.1740 C.3   139  ILE139      0.0001
@<TRIPOS>BOND
     1   193   194    1
     2   205   206    1
     3   195   194    1
     4   195   196    2
     5   194   197    1
     6   113   112    2
     7   206   207    1
     8   206   209    1
     9   210   212    1
    10   210   209    1
    11   197   198    1
    12   207   213   am
    13   207   208    2
    14   209   211    1
    15   213   214    1
    16   215   214    1
    17   215   216    2
    18   112   111    1
    19   198   200   ar
    20   198   199   ar
    21   200   202   ar
    22   115   114    1
    23   214   217    1
    24   218   219    1
    25   102   101    2
    26   111   114    1
    27   111   110    1
    28   199   201   ar
    29   202   203   ar
    30   114   116    1
    31   101   110   am
    32   101   100    1
    33   219   220    1
    34   219   222    1
    35   220   221    2
    36   201   203   ar
    37   203   204    1
    38   223   222    1
    39   223   225    1
    40   222   224    1
    41   100    99    1
    42   100   103    1
    43    94    93    2
    44    98    96    1
    45   103   104    1
    46   174   173    2
    47    93    92    1
    48   123   122    1
    49   104   105    1
    50   175   176    1
    51   175   172    1
    52   173   172    1
    53   117   118    1
    54    90    89    2
    55   105   106    1
    56   121   122    1
    57   121   118    1
    58   178   176   ar
    59   178   180   ar
    60   106   107    2
    61    92    95    1
    62    92    91    1
    63   122   124    1
    64   176   177   ar
    65   172   171    1
    66   118   119    1
    67    96    95    1
    68    96    97    1
    69   119   120    2
    70   180   181   ar
    71   184   185    2
    72   184   183    1
    73    89    91   am
    74    89    88    1
    75   177   179   ar
    76   171   165   am
    77   107   109    1
    78   107   108    1
    79   189   191   ar
    80   189   187   ar
    81   181   179   ar
    82   186   183    1
    83   186   187    1
    84   182   183    1
    85   191   192   ar
    86    88    87    1
    87   163   164    1
    88   165   166    2
    89   165   164    1
    90   187   188   ar
    91   158   157    2
    92   125   126    1
    93   164   167    1
    94   138   139    1
    95   138   135    1
    96   140   139   ar
    97   140   142   ar
    98   192   190   ar
    99   139   141   ar
   100   134   135    1
   101   134   127   am
   102   188   190   ar
   103   142   143   ar
   104   136   135    1
   105   136   137    2
   106    83    82    2
   107   157   156    1
   108   132   131    2
   109   130   129    1
   110   130   131    1
   111   141   143   ar
   112   167   168    1
   113   126   129    1
   114   126   127    1
   115   131   133   am
   116   127   128    2
   117   159   156    1
   118   159   161    1
   119   159   160    1
   120   155   156    1
   121    82    81    1
   122    86    84    1
   123   168   170   am
   124   168   169    2
   125   162   160    1
   126    72    71    2
   127    81    84    1
   128    81    80    1
   129    21    19    1
   130    84    85    1
   131   144   145    1
   132    71    80   am
   133    71    70    1
   134   146   145    1
   135   146   147    2
   136    16    19    1
   137    16    15    1
   138    16    17    1
   139    20    19    1
   140   145   148    1
   141   148   149    1
   142    12    14   ar
   143    12    10   ar
   144    18    17    2
   145    14    13   ar
   146    70    73    1
   147    70    69    1
   148     9    10   ar
   149     9     7   ar
   150    10     8   ar
   151     1     2    1
   152    13    11   ar
   153    73    74    1
   154   150   149    1
   155   150   151    1
   156     7     6   ar
   157    45    44   ar
   158    45    43   ar
   159    26    23    1
   160    34    32    1
   161     8    11   ar
   162     8     6   ar
   163   153   152    1
   164     2     3    1
   165     2     5    1
   166     6     5    1
   167    44    42   ar
   168    74    75    1
   169    43    41   ar
   170    62    61    2
   171     3     4    2
   172    67    68   ar
   173    67    65   ar
   174   151   152    2
   175    68    66   ar
   176   152   154    1
   177    33    31    1
   178    75    76    1
   179    23    22    1
   180    23    24    1
   181    32    31    1
   182    65    64   ar
   183    42    40   ar
   184    61    60    1
   185    31    28    1
   186    66    64   ar
   187    76    77    2
   188    41    40   ar
   189    25    24    2
   190    64    63    1
   191    40    39    1
   192    60    63    1
   193    60    59    1
   194    77    78    1
   195    77    79    1
   196    28    29    1
   197    28    27    1
   198    29    30    2
   199    29    35   am
   200    39    36    1
   201    35    36    1
   202    36    37    1
   203    57    56    1
   204    58    56    1
   205    56    53    1
   206    37    38    2
   207    51    50    1
   208    50    47    1
   209    52    53    1
   210    52    48   am
   211    53    54    1
   212    46    47    1
   213    47    48    1
   214    48    49    2
   215    55    54    2
