@<TRIPOS>MOLECULE
tmp/1yhuO00.pdb
 221 207 0 0 0
SMALL
GASTEIGER

@<TRIPOS>ATOM
      1  N         38.4500  197.2080    5.5390 N.3    37  PHE37      -0.1241
      2  CA        38.7810  198.6300    5.6030 C.3    37  PHE37       0.1605
      3  C         37.7800  199.5380    4.9040 C.2    37  PHE37       0.2264
      4  O         37.3470  200.5280    5.4870 O.2    37  PHE37      -0.2867
      5  CB        40.1930  198.8960    5.0720 C.3    37  PHE37       0.0534
      6  CG        41.2640  198.5920    6.0690 C.ar   37  PHE37      -0.0203
      7  CD1       41.9220  197.3760    6.0510 C.ar   37  PHE37      -0.0042
      8  CD2       41.5780  199.5020    7.0660 C.ar   37  PHE37      -0.0042
      9  CE1       42.8830  197.0650    7.0170 C.ar   37  PHE37      -0.0003
     10  CE2       42.5320  199.2030    8.0310 C.ar   37  PHE37      -0.0003
     11  CZ        43.1870  197.9830    8.0080 C.ar   37  PHE37      -0.0000
     12  N         35.3580  199.9700    7.1600 N.3    40  LEU40      -0.1245
     13  CA        35.8740  200.6650    8.3290 C.3    40  LEU40       0.1561
     14  C         35.9700  202.1420    8.0430 C.2    40  LEU40       0.2260
     15  O         35.9360  202.9500    8.9500 O.2    40  LEU40      -0.2867
     16  CB        37.2420  200.1010    8.7250 C.3    40  LEU40       0.0270
     17  CG        37.9540  200.5870    9.9940 C.3    40  LEU40       0.0019
     18  CD1       38.8960  201.6680    9.6430 C.3    40  LEU40       0.0001
     19  CD2       36.9700  201.0710   11.0270 C.3    40  LEU40       0.0001
     20  N         38.8790  208.6790    9.6630 N.3    47  ALA47      -0.1245
     21  CA        39.9920  207.7960    9.9960 C.3    47  ALA47       0.1562
     22  C         40.9790  207.5700    8.8460 C.2    47  ALA47       0.2260
     23  O         42.1120  207.1520    9.0790 O.2    47  ALA47      -0.2867
     24  CB        39.4490  206.4550   10.5110 C.3    47  ALA47       0.0290
     25  N         44.6200  208.5300    8.7710 N.3    50  LEU50      -0.1231
     26  CA        45.4150  207.8620    9.7900 C.3    50  LEU50       0.1693
     27  C         46.3870  206.8520    9.1680 C.2    50  LEU50       0.2592
     28  O         47.3860  206.4590    9.7850 O.2    50  LEU50      -0.2718
     29  CB        44.4790  207.1700   10.7770 C.3    50  LEU50       0.0284
     30  CG        44.9250  207.0930   12.2360 C.3    50  LEU50       0.0019
     31  CD1       45.4220  208.4370   12.7420 C.3    50  LEU50       0.0001
     32  CD2       43.7490  206.6470   13.0580 C.3    50  LEU50       0.0001
     33  N         46.0900  206.4500    7.9350 N.am   51  PHE51      -0.1976
     34  CA        46.9140  205.4930    7.2050 C.3    51  PHE51       0.1639
     35  C         47.6090  206.1680    6.0330 C.2    51  PHE51       0.2290
     36  O         47.9180  205.5390    5.0210 O.2    51  PHE51      -0.2864
     37  CB        46.0510  204.3400    6.6900 C.3    51  PHE51       0.0560
     38  CG        45.2530  203.6690    7.7590 C.ar   51  PHE51      -0.0200
     39  CD1       44.0030  204.1420    8.1090 C.ar   51  PHE51      -0.0042
     40  CD2       45.7680  202.5790    8.4400 C.ar   51  PHE51      -0.0042
     41  CE1       43.2750  203.5410    9.1250 C.ar   51  PHE51      -0.0003
     42  CE2       45.0500  201.9740    9.4540 C.ar   51  PHE51      -0.0003
     43  CZ        43.7990  202.4550    9.7990 C.ar   51  PHE51      -0.0000
     44  N         50.5480  207.0950    5.7760 N.3    53  ARG53      -0.1231
     45  CA        51.8660  206.5020    5.5940 C.3    53  ARG53       0.1694
     46  C         51.8710  205.2910    4.6700 C.2    53  ARG53       0.2591
     47  O         52.8650  205.0120    4.0050 O.2    53  ARG53      -0.2718
     48  CB        52.4550  206.0970    6.9480 C.3    53  ARG53       0.0321
     49  CG        53.9770  206.1360    6.9940 C.3    53  ARG53       0.0489
     50  CD        54.5680  205.0030    7.8200 C.3    53  ARG53       0.2205
     51  NE        54.5870  203.7360    7.0870 N.pl3  53  ARG53      -0.0865
     52  CZ        55.1080  202.6020    7.5520 C.cat  53  ARG53       0.5346
     53  NH1       55.6580  202.5650    8.7600 N.pl3  53  ARG53       0.1354
     54  NH2       55.0910  201.5060    6.8020 N.pl3  53  ARG53       0.1354
     55  N         50.7630  204.5680    4.6230 N.am   54  VAL54      -0.1980
     56  CA        50.6990  203.3850    3.7880 C.3    54  VAL54       0.1595
     57  C         49.8700  203.5560    2.5210 C.2    54  VAL54       0.2287
     58  O         49.0750  202.6790    2.1750 O.2    54  VAL54      -0.2864
     59  CB        50.1590  202.1910    4.5860 C.3    54  VAL54       0.0276
     60  CG1       51.0980  201.8850    5.7160 C.3    54  VAL54       0.0022
     61  CG2       48.7670  202.4890    5.1260 C.3    54  VAL54       0.0022
     62  N         49.8140  196.6520    3.8700 N.3    67  HIS67      -0.1241
     63  CA        49.3630  196.9950    5.2140 C.3    67  HIS67       0.1621
     64  C         48.2070  196.0950    5.6230 C.2    67  HIS67       0.2264
     65  O         48.2510  195.4380    6.6630 O.2    67  HIS67      -0.2867
     66  CB        48.8910  198.4440    5.2660 C.3    67  HIS67       0.0745
     67  CG        48.1380  198.7850    6.5130 C.ar   67  HIS67       0.0817
     68  ND1       48.7230  198.9560    7.7490 N.ar   67  HIS67      -0.2268
     69  CD2       46.8030  198.9310    6.7140 C.ar   67  HIS67       0.1154
     70  CE1       47.7430  199.1880    8.6380 C.ar   67  HIS67       0.1986
     71  NE2       46.5560  199.1830    8.0590 N.ar   67  HIS67      -0.2212
     72  N         49.1420  192.7360    6.6340 N.3    70  ARG70      -0.1231
     73  CA        49.7540  192.7310    7.9670 C.3    70  ARG70       0.1694
     74  C         48.6830  192.6530    9.0650 C.2    70  ARG70       0.2591
     75  O         48.8560  191.9580   10.0690 O.2    70  ARG70      -0.2718
     76  CB        50.6140  193.9830    8.1670 C.3    70  ARG70       0.0321
     77  CG        52.1110  193.7290    8.0810 C.3    70  ARG70       0.0489
     78  CD        52.7660  194.6740    7.0920 C.3    70  ARG70       0.2205
     79  NE        52.4500  196.0630    7.3930 N.pl3  70  ARG70      -0.0865
     80  CZ        52.5590  197.0540    6.5230 C.cat  70  ARG70       0.5346
     81  NH1       52.9830  196.8110    5.2920 N.pl3  70  ARG70       0.1354
     82  NH2       52.2160  198.2790    6.8820 N.pl3  70  ARG70       0.1354
     83  N         47.5770  193.3630    8.8620 N.am   71  VAL71      -0.1980
     84  CA        46.4690  193.3630    9.8090 C.3    71  VAL71       0.1595
     85  C         45.8550  191.9790    9.9010 C.2    71  VAL71       0.2287
     86  O         45.6430  191.4700   10.9930 O.2    71  VAL71      -0.2864
     87  CB        45.3820  194.3400    9.3780 C.3    71  VAL71       0.0276
     88  CG1       44.2450  194.3450   10.3930 C.3    71  VAL71       0.0022
     89  CG2       45.9890  195.7200    9.2250 C.3    71  VAL71       0.0022
     90  N         47.8970  189.5950   11.7300 N.3    74  GLY74      -0.1210
     91  CA        47.7110  189.8500   13.1540 C.3    74  GLY74       0.1956
     92  C         46.4460  189.2350   13.7400 C.2    74  GLY74       0.2611
     93  O         46.5080  188.4830   14.7080 O.2    74  GLY74      -0.2717
     94  N         45.2960  189.5650   13.1690 N.am   75  LEU75      -0.1979
     95  CA        44.0510  189.0190   13.6470 C.3    75  LEU75       0.1596
     96  C         44.1670  187.4910   13.7030 C.2    75  LEU75       0.2287
     97  O         43.6940  186.8570   14.6530 O.2    75  LEU75      -0.2864
     98  CB        42.9100  189.4320   12.7150 C.3    75  LEU75       0.0297
     99  CG        41.5000  189.1220   13.2370 C.3    75  LEU75       0.0022
    100  CD1       41.3500  189.6890   14.6600 C.3    75  LEU75       0.0001
    101  CD2       40.4550  189.7160   12.2980 C.3    75  LEU75       0.0001
    102  N         46.2030  186.2410   16.5940 N.3    78  LEU78      -0.1245
    103  CA        45.3670  186.3170   17.7830 C.3    78  LEU78       0.1561
    104  C         44.3480  185.1970   17.8460 C.2    78  LEU78       0.2260
    105  O         44.4260  184.3220   18.7010 O.2    78  LEU78      -0.2867
    106  CB        44.6270  187.6620   17.8240 C.3    78  LEU78       0.0270
    107  CG        45.3430  188.9280   18.3250 C.3    78  LEU78       0.0019
    108  CD1       44.6610  190.1770   17.7630 C.3    78  LEU78       0.0001
    109  CD2       45.3370  188.9540   19.8540 C.3    78  LEU78       0.0001
    110  N         50.9290  194.2100   19.9520 N.3    95  LEU95      -0.1245
    111  CA        50.0090  194.9870   19.1230 C.3    95  LEU95       0.1561
    112  C         49.6400  196.3060   19.7870 C.2    95  LEU95       0.2260
    113  O         49.5670  197.3490   19.1330 O.2    95  LEU95      -0.2867
    114  CB        48.7500  194.1780   18.8430 C.3    95  LEU95       0.0270
    115  CG        48.9210  193.1110   17.7720 C.3    95  LEU95       0.0019
    116  CD1       47.7440  192.1630   17.8030 C.3    95  LEU95       0.0001
    117  CD2       49.0630  193.7880   16.4210 C.3    95  LEU95       0.0001
    118  N         52.4600  198.6550   19.4530 N.3    98  GLN98      -0.1231
    119  CA        52.4870  199.0510   18.0420 C.3    98  GLN98       0.1698
    120  C         51.4140  200.0840   17.6860 C.2    98  GLN98       0.2592
    121  O         51.5780  200.8550   16.7420 O.2    98  GLN98      -0.2718
    122  CB        52.3300  197.8220   17.1330 C.3    98  GLN98       0.0381
    123  CG        53.4930  196.8460   17.2150 C.3    98  GLN98       0.0905
    124  CD        53.4260  195.7310   16.1780 C.2    98  GLN98       0.2608
    125  OE1       52.4580  194.9680   16.1160 O.2    98  GLN98      -0.2717
    126  NE2       54.4700  195.6270   15.3650 N.am   98  GLN98      -0.0878
    127  N         50.3160  200.0930   18.4340 N.am   99  HIS99      -0.1976
    128  CA        49.2610  201.0550   18.1770 C.3    99  HIS99       0.1656
    129  C         49.3560  202.2700   19.0850 C.2    99  HIS99       0.2291
    130  O         49.1300  203.3830   18.6460 O.2    99  HIS99      -0.2864
    131  CB        47.8890  200.4120   18.3350 C.3    99  HIS99       0.0771
    132  CG        47.4990  199.5380   17.1870 C.ar   99  HIS99       0.0820
    133  ND1       48.0770  198.3220   16.9080 N.ar   99  HIS99      -0.2267
    134  CD2       46.5730  199.7330   16.2140 C.ar   99  HIS99       0.1154
    135  CE1       47.4920  197.8340   15.7980 C.ar   99  HIS99       0.1986
    136  NE2       46.5690  198.6540   15.3340 N.ar   99  HIS99      -0.2212
    137  N         51.2120  204.9050   17.4480 N.3   102  ARG102     -0.1245
    138  CA        50.6600  205.5630   16.2740 C.3   102  ARG102      0.1563
    139  C         49.7380  206.6740   16.7560 C.2   102  ARG102      0.2260
    140  O         48.5900  206.4270   17.1350 O.2   102  ARG102     -0.2867
    141  CB        49.8700  204.5720   15.4180 C.3   102  ARG102      0.0307
    142  CG        50.6910  203.4140   14.8720 C.3   102  ARG102      0.0489
    143  CD        51.8530  203.9080   14.0440 C.3   102  ARG102      0.2205
    144  NE        51.4110  204.9080   13.0860 N.pl3 102  ARG102     -0.0865
    145  CZ        52.1990  205.4740   12.1840 C.cat 102  ARG102      0.5346
    146  NH1       53.4750  205.1300   12.1170 N.pl3 102  ARG102      0.1354
    147  NH2       51.7130  206.3860   11.3540 N.pl3 102  ARG102      0.1354
    148  N         45.3610  206.8960   16.8690 N.3   105  VAL105     -0.1231
    149  CA        44.5250  205.7210   17.1040 C.3   105  VAL105      0.1692
    150  C         43.8230  205.8010   18.4410 C.2   105  VAL105      0.2592
    151  O         44.4570  205.8690   19.4900 O.2   105  VAL105     -0.2718
    152  CB        45.3410  204.4310   17.0690 C.3   105  VAL105      0.0266
    153  CG1       45.9140  204.2200   15.6890 C.3   105  VAL105      0.0020
    154  CG2       46.4480  204.5070   18.0850 C.3   105  VAL105      0.0020
    155  N         42.4990  205.7780   18.3850 N.am  106  THR106     -0.1953
    156  CA        41.6530  205.8740   19.5640 C.3   106  THR106      0.1897
    157  C         41.1530  204.5150   20.0550 C.2   106  THR106      0.2313
    158  O         40.9540  203.5910   19.2690 O.2   106  THR106     -0.2863
    159  CB        40.4460  206.7860   19.2590 C.3   106  THR106      0.1794
    160  OG1       39.4800  206.6830   20.3110 O.3   106  THR106     -0.2208
    161  CG2       39.8150  206.4010   17.9090 C.3   106  THR106      0.0378
    162  N         38.5490  203.4830   17.9960 N.3   109  GLY109     -0.1210
    163  CA        38.7830  203.2850   16.5780 C.3   109  GLY109      0.1956
    164  C         38.5320  201.7990   16.4340 C.2   109  GLY109      0.2611
    165  O         37.9560  201.3150   15.4600 O.2   109  GLY109     -0.2717
    166  N         38.9490  201.0740   17.4640 N.am  110  PHE110     -0.1976
    167  CA        38.7860  199.6350   17.5130 C.3   110  PHE110      0.1639
    168  C         37.3310  199.2530   17.6350 C.2   110  PHE110      0.2290
    169  O         36.8810  198.3440   16.9630 O.2   110  PHE110     -0.2864
    170  CB        39.5880  199.0530   18.6670 C.3   110  PHE110      0.0560
    171  CG        41.0220  198.8200   18.3310 C.ar  110  PHE110     -0.0200
    172  CD1       41.8440  199.8610   17.9580 C.ar  110  PHE110     -0.0042
    173  CD2       41.5430  197.5490   18.3290 C.ar  110  PHE110     -0.0042
    174  CE1       43.1690  199.6360   17.5800 C.ar  110  PHE110     -0.0003
    175  CE2       42.8650  197.3180   17.9500 C.ar  110  PHE110     -0.0003
    176  CZ        43.6760  198.3660   17.5750 C.ar  110  PHE110     -0.0000
    177  N         36.1220  199.0890   14.2580 N.3   113  MET113     -0.1245
    178  CA        36.6530  197.8990   13.5900 C.3   113  MET113      0.1570
    179  C         35.7920  196.6910   13.9240 C.2   113  MET113      0.2261
    180  O         35.3380  195.9860   13.0330 O.2   113  MET113     -0.2867
    181  CB        38.0870  197.6310   14.0420 C.3   113  MET113      0.0387
    182  CG        38.6920  196.3780   13.4390 C.3   113  MET113      0.0595
    183  SD        38.7340  196.4870   11.6530 S.3   113  MET113     -0.1393
    184  CE        40.4300  197.0720   11.4130 C.3   113  MET113      0.0692
    185  N         33.8150  194.0130   11.3950 N.3   117  LEU117     -0.1245
    186  CA        34.0170  192.5660   11.2690 C.3   117  LEU117      0.1561
    187  C         32.6980  191.8460   11.5340 C.2   117  LEU117      0.2260
    188  O         32.2950  190.9600   10.7940 O.2   117  LEU117     -0.2867
    189  CB        35.0940  192.0770   12.2510 C.3   117  LEU117      0.0270
    190  CG        36.5480  192.4580   11.9200 C.3   117  LEU117      0.0019
    191  CD1       37.4890  192.1180   13.0570 C.3   117  LEU117      0.0001
    192  CD2       36.9840  191.7400   10.6780 C.3   117  LEU117      0.0001
    193  N         36.0790  187.8990   20.5630 N.3   137  LEU137     -0.1245
    194  CA        36.5790  189.1210   19.9540 C.3   137  LEU137      0.1561
    195  C         36.7300  190.2510   20.9670 C.2   137  LEU137      0.2260
    196  O         37.8210  190.8070   21.1120 O.2   137  LEU137     -0.2867
    197  CB        35.6660  189.5410   18.8100 C.3   137  LEU137      0.0270
    198  CG        36.3920  190.0040   17.5520 C.3   137  LEU137      0.0019
    199  CD1       35.4270  189.9640   16.3940 C.3   137  LEU137      0.0001
    200  CD2       36.9610  191.4020   17.7520 C.3   137  LEU137      0.0001
    201  N         39.7790  190.1760   23.1680 N.3   140  ILE140     -0.1231
    202  CA        41.0530  190.6940   22.6790 C.3   140  ILE140      0.1692
    203  C         41.0020  192.0970   22.1020 C.2   140  ILE140      0.2591
    204  O         42.0190  192.7890   22.0760 O.2   140  ILE140     -0.2718
    205  CB        41.7270  189.7560   21.6170 C.3   140  ILE140      0.0266
    206  CG1       40.8420  189.5790   20.3960 C.3   140  ILE140      0.0019
    207  CG2       42.0220  188.4130   22.2240 C.3   140  ILE140      0.0020
    208  CD1       41.4950  188.7510   19.3400 C.3   140  ILE140      0.0001
    209  N         39.8430  192.5300   21.6240 N.am  141  ALA141     -0.1980
    210  CA        39.7590  193.8820   21.0880 C.3   141  ALA141      0.1597
    211  C         40.1100  194.7690   22.2650 C.2   141  ALA141      0.2287
    212  O         40.7540  195.8020   22.1230 O.2   141  ALA141     -0.2864
    213  CB        38.3460  194.1910   20.5980 C.3   141  ALA141      0.0319
    214  N         44.1330  194.5550   23.0460 N.3   144  ILE144     -0.1245
    215  CA        44.9700  195.2690   22.0790 C.3   144  ILE144      0.1561
    216  C         44.9070  196.7460   22.3560 C.2   144  ILE144      0.2260
    217  O         45.9250  197.4120   22.3800 O.2   144  ILE144     -0.2867
    218  CB        44.5150  195.0640   20.6160 C.3   144  ILE144      0.0252
    219  CG1       44.8320  193.6430   20.1600 C.3   144  ILE144      0.0019
    220  CG2       45.2230  196.0520   19.7070 C.3   144  ILE144      0.0019
    221  CD1       44.4190  193.3440   18.7340 C.3   144  ILE144      0.0001
@<TRIPOS>BOND
     1    58    57    2
     2    57    56    1
     3    56    59    1
     4    56    55    1
     5    62    63    1
     6    47    46    2
     7    59    61    1
     8    59    60    1
     9    55    46   am
    10    46    45    1
    11     3     4    2
    12     3     2    1
    13    36    35    2
    14     5     2    1
    15     5     6    1
    16    63    66    1
    17    63    64    1
    18    66    67    1
    19    81    80    1
    20     1     2    1
    21    45    44    1
    22    45    48    1
    23    64    65    2
    24    35    34    1
    25     7     6   ar
    26     7     9   ar
    27     6     8   ar
    28    67    69   ar
    29    67    68   ar
    30    80    82    1
    31    80    79    2
    32    72    73    1
    33    37    34    1
    34    37    38    1
    35    69    71   ar
    36    54    52    1
    37    48    49    1
    38    49    50    1
    39     9    11   ar
    40     8    10   ar
    41    51    52    2
    42    51    50    1
    43    78    79    1
    44    78    77    1
    45    12    13    1
    46    34    33    1
    47    52    53    1
    48    68    70   ar
    49    38    39   ar
    50    38    40   ar
    51    33    27   am
    52    73    76    1
    53    73    74    1
    54    11    10   ar
    55    14    13    1
    56    14    15    2
    57    71    70   ar
    58    77    76    1
    59    39    41   ar
    60    13    16    1
    61    40    42   ar
    62    16    17    1
    63    25    26    1
    64    22    23    2
    65    22    21    1
    66    83    74   am
    67    83    84    1
    68    74    75    2
    69    41    43   ar
    70    27    28    2
    71    27    26    1
    72    89    87    1
    73    87    84    1
    74    87    88    1
    75    42    43   ar
    76    18    17    1
    77    20    21    1
    78    26    29    1
    79    84    85    1
    80    85    86    2
    81    17    19    1
    82    21    24    1
    83   192   190    1
    84    29    30    1
    85   188   187    2
    86   186   185    1
    87   186   187    1
    88   186   189    1
    89   147   145    1
    90   184   183    1
    91   183   182    1
    92    90    91    1
    93   190   189    1
    94   190   191    1
    95   146   145    1
    96   145   144    2
    97    30    31    1
    98    30    32    1
    99   101    99    1
   100    98    99    1
   101    98    95    1
   102   180   179    2
   103   144   143    1
   104    91    92    1
   105    94    95    1
   106    94    92   am
   107    99   100    1
   108   182   181    1
   109   178   179    1
   110   178   181    1
   111   178   177    1
   112    95    96    1
   113    96    97    2
   114    92    93    2
   115   143   142    1
   116   142   141    1
   117   136   135   ar
   118   136   134   ar
   119   126   124   am
   120   141   138    1
   121   165   164    2
   122   153   152    1
   123   135   133   ar
   124   125   124    2
   125   124   123    1
   126   134   132   ar
   127   138   139    1
   128   138   137    1
   129   199   198    1
   130   117   115    1
   131   164   163    1
   132   164   166   am
   133   163   162    1
   134   102   103    1
   135   121   120    2
   136   139   140    2
   137   148   149    1
   138   133   132   ar
   139   169   168    2
   140   152   149    1
   141   152   154    1
   142   149   150    1
   143   122   123    1
   144   122   119    1
   145   132   131    1
   146   166   167    1
   147   167   168    1
   148   167   170    1
   149   198   200    1
   150   198   197    1
   151   176   174   ar
   152   176   175   ar
   153   174   172   ar
   154   120   119    1
   155   120   127   am
   156   108   107    1
   157   115   116    1
   158   115   114    1
   159   103   106    1
   160   103   104    1
   161   106   107    1
   162   104   105    2
   163   161   159    1
   164   175   173   ar
   165   172   171   ar
   166   119   118    1
   167   128   131    1
   168   128   127    1
   169   128   129    1
   170   107   109    1
   171   173   171   ar
   172   171   170    1
   173   155   150   am
   174   155   156    1
   175   150   151    2
   176   130   129    2
   177   221   219    1
   178   197   194    1
   179   114   111    1
   180   111   112    1
   181   111   110    1
   182   113   112    2
   183   159   156    1
   184   159   160    1
   185   158   157    2
   186   208   206    1
   187   156   157    1
   188   220   218    1
   189   194   193    1
   190   194   195    1
   191   219   218    1
   192   206   205    1
   193   213   210    1
   194   218   215    1
   195   195   196    2
   196   210   209    1
   197   210   211    1
   198   205   207    1
   199   205   202    1
   200   209   203   am
   201   204   203    2
   202   215   216    1
   203   215   214    1
   204   203   202    1
   205   212   211    2
   206   216   217    2
   207   202   201    1
