@<TRIPOS>MOLECULE
tmp/1yhuR00.pdb
 237 225 0 0 0
SMALL
GASTEIGER

@<TRIPOS>ATOM
      1  N          8.2000  174.3530    5.8440 N.3    34  TRP34      -0.1241
      2  CA         8.0520  175.5730    5.0620 C.3    34  TRP34       0.1605
      3  C          8.5580  175.4560    3.6380 C.2    34  TRP34       0.2264
      4  O          7.9750  176.0260    2.7140 O.2    34  TRP34      -0.2867
      5  CB         8.7020  176.7490    5.8070 C.3    34  TRP34       0.0550
      6  CG         7.8070  177.1410    6.9130 C.ar   34  TRP34       0.0003
      7  CD1        7.9530  176.8550    8.2420 C.ar   34  TRP34       0.0946
      8  CD2        6.5010  177.6910    6.7650 C.ar   34  TRP34       0.0152
      9  NE1        6.8050  177.1800    8.9310 N.ar   34  TRP34      -0.2442
     10  CE2        5.8980  177.6950    8.0420 C.ar   34  TRP34       0.0810
     11  CE3        5.7730  178.1710    5.6710 C.ar   34  TRP34       0.0012
     12  CZ2        4.6030  178.1610    8.2510 C.ar   34  TRP34       0.0191
     13  CZ3        4.4880  178.6320    5.8780 C.ar   34  TRP34       0.0001
     14  CH2        3.9130  178.6250    7.1570 C.ar   34  TRP34       0.0015
     15  N          5.9050  173.7520    1.8640 N.3    37  VAL37      -0.1245
     16  CA         4.7610  174.6410    1.6970 C.3    37  VAL37       0.1561
     17  C          4.8800  175.5000    0.4560 C.2    37  VAL37       0.2260
     18  O          3.9510  175.5810   -0.3320 O.2    37  VAL37      -0.2867
     19  CB         4.5720  175.5710    2.9060 C.3    37  VAL37       0.0252
     20  CG1        3.5530  176.6520    2.5720 C.3    37  VAL37       0.0019
     21  CG2        4.0850  174.7630    4.1060 C.3    37  VAL37       0.0019
     22  N          2.2110  181.7790   -1.8250 N.3    44  ALA44      -0.1245
     23  CA         2.1010  181.9900   -0.3810 C.3    44  ALA44       0.1562
     24  C          3.2340  182.8220    0.1990 C.2    44  ALA44       0.2260
     25  O          3.0410  183.5220    1.1870 O.2    44  ALA44      -0.2867
     26  CB         2.0190  180.6500    0.3380 C.3    44  ALA44       0.0290
     27  N          2.9300  186.4330    1.5690 N.3    47  MET47      -0.1230
     28  CA         2.3400  186.7740    2.8610 C.3    47  MET47       0.1702
     29  C          3.3970  186.9820    3.9400 C.2    47  MET47       0.2592
     30  O          3.1520  187.6320    4.9650 O.2    47  MET47      -0.2718
     31  CB         1.3750  185.6700    3.2870 C.3    47  MET47       0.0401
     32  CG         0.3560  185.3420    2.2260 C.3    47  MET47       0.0596
     33  SD        -0.7680  184.0630    2.7270 S.3    47  MET47      -0.1393
     34  CE        -1.7150  184.9200    4.0390 C.3    47  MET47       0.0692
     35  N          4.5850  186.4500    3.6910 N.am   48  PHE48      -0.1976
     36  CA         5.6600  186.5440    4.6580 C.3    48  PHE48       0.1639
     37  C          6.7420  187.5530    4.3040 C.2    48  PHE48       0.2290
     38  O          7.9130  187.3680    4.6510 O.2    48  PHE48      -0.2864
     39  CB         6.2670  185.1520    4.8650 C.3    48  PHE48       0.0560
     40  CG         5.2440  184.0980    5.2020 C.ar   48  PHE48      -0.0200
     41  CD1        4.5440  183.4480    4.1940 C.ar   48  PHE48      -0.0042
     42  CD2        4.9520  183.7860    6.5310 C.ar   48  PHE48      -0.0042
     43  CE1        3.5640  182.5010    4.4990 C.ar   48  PHE48      -0.0003
     44  CE2        3.9760  182.8430    6.8460 C.ar   48  PHE48      -0.0003
     45  CZ         3.2800  182.1990    5.8290 C.ar   48  PHE48      -0.0000
     46  N          7.4390  190.2440    5.5920 N.3    50  ARG50      -0.1231
     47  CA         8.0700  190.8280    6.7700 C.3    50  ARG50       0.1694
     48  C          9.2020  189.9740    7.3180 C.2    50  ARG50       0.2591
     49  O         10.1520  190.4810    7.9200 O.2    50  ARG50      -0.2718
     50  CB         7.0320  191.0350    7.8830 C.3    50  ARG50       0.0321
     51  CG         7.5590  191.8250    9.1000 C.3    50  ARG50       0.0489
     52  CD         6.5550  191.8400   10.2550 C.3    50  ARG50       0.2205
     53  NE         6.8240  190.7980   11.2440 N.pl3  50  ARG50      -0.0865
     54  CZ         7.8350  190.8350   12.1060 C.cat  50  ARG50       0.5346
     55  NH1        8.6740  191.8630   12.1000 N.pl3  50  ARG50       0.1354
     56  NH2        8.0070  189.8500   12.9790 N.pl3  50  ARG50       0.1354
     57  N          9.0960  188.6710    7.0970 N.am   51  VAL51      -0.1980
     58  CA        10.0780  187.7350    7.6210 C.3    51  VAL51       0.1595
     59  C         10.8810  186.9850    6.5610 C.2    51  VAL51       0.2287
     60  O         11.1220  185.7870    6.6870 O.2    51  VAL51      -0.2864
     61  CB         9.3670  186.7330    8.5520 C.3    51  VAL51       0.0276
     62  CG1        8.7490  187.4870    9.7400 C.3    51  VAL51       0.0022
     63  CG2        8.2660  185.9870    7.7790 C.3    51  VAL51       0.0022
     64  N         11.0170  182.9060   12.2880 N.3    64  HIS64      -0.1241
     65  CA         9.5760  182.8420   12.0750 C.3    64  HIS64       0.1621
     66  C          9.1010  181.4120   12.2730 C.2    64  HIS64       0.2264
     67  O          8.2380  181.1420   13.1000 O.2    64  HIS64      -0.2867
     68  CB         9.2010  183.2840   10.6710 C.3    64  HIS64       0.0745
     69  CG         7.7750  182.9800   10.3270 C.ar   64  HIS64       0.0817
     70  ND1        6.6910  183.5750   10.9400 N.ar   64  HIS64      -0.2268
     71  CD2        7.2570  182.0750    9.4550 C.ar   64  HIS64       0.1154
     72  CE1        5.5710  183.0210   10.4310 C.ar   64  HIS64       0.1986
     73  NE2        5.8600  182.1040    9.5260 N.ar   64  HIS64      -0.2212
     74  N          8.6860  180.2700   15.6580 N.3    67  ARG67      -0.1231
     75  CA         7.4550  180.6630   16.3150 C.3    67  ARG67       0.1694
     76  C          6.2940  179.7570   15.9250 C.2    67  ARG67       0.2591
     77  O          5.5120  179.3350   16.7760 O.2    67  ARG67      -0.2718
     78  CB         7.1290  182.1280   15.9790 C.3    67  ARG67       0.0321
     79  CG         8.1020  183.1540   16.6070 C.3    67  ARG67       0.0489
     80  CD         7.6060  184.5930   16.4520 C.3    67  ARG67       0.2205
     81  NE         7.8070  185.1000   15.1010 N.pl3  67  ARG67      -0.0865
     82  CZ         8.9890  185.4460   14.6110 C.cat  67  ARG67       0.5346
     83  NH1       10.0700  185.3420   15.3660 N.pl3  67  ARG67       0.1354
     84  NH2        9.0930  185.8870   13.3650 N.pl3  67  ARG67       0.1354
     85  N          6.2100  179.4450   14.6380 N.am   68  VAL68      -0.1980
     86  CA         5.1360  178.6190   14.1140 C.3    68  VAL68       0.1595
     87  C          5.1150  177.2540   14.7440 C.2    68  VAL68       0.2287
     88  O          4.1420  176.8720   15.4030 O.2    68  VAL68      -0.2864
     89  CB         5.2560  178.4190   12.5940 C.3    68  VAL68       0.0276
     90  CG1        4.0100  177.7030   12.0720 C.3    68  VAL68       0.0022
     91  CG2        5.4640  179.7720   11.8940 C.3    68  VAL68       0.0022
     92  N          4.1200  177.3670   18.2220 N.3    71  GLY71      -0.1210
     93  CA         2.7030  177.4870   18.4700 C.3    71  GLY71       0.1956
     94  C          2.1070  176.1070   18.3240 C.2    71  GLY71       0.2611
     95  O          1.4070  175.6070   19.2050 O.2    71  GLY71      -0.2717
     96  N          2.4230  175.4860   17.1940 N.am   72  LEU72      -0.1979
     97  CA         1.9360  174.1530   16.8810 C.3    72  LEU72       0.1596
     98  C          2.1670  173.1800   18.0520 C.2    72  LEU72       0.2287
     99  O          1.2790  172.3950   18.4110 O.2    72  LEU72      -0.2864
    100  CB         2.6320  173.6590   15.6090 C.3    72  LEU72       0.0297
    101  CG         1.9700  172.4990   14.8660 C.3    72  LEU72       0.0022
    102  CD1        0.5020  172.8190   14.5860 C.3    72  LEU72       0.0001
    103  CD2        2.7270  172.2650   13.5610 C.3    72  LEU72       0.0001
    104  N          2.4300  173.8720   21.2060 N.3    74  MET74      -0.1230
    105  CA         1.4990  174.1780   22.2820 C.3    74  MET74       0.1702
    106  C          0.1470  173.5100   22.0370 C.2    74  MET74       0.2592
    107  O         -0.3620  172.7680   22.8770 O.2    74  MET74      -0.2718
    108  CB         1.3100  175.6870   22.4040 C.3    74  MET74       0.0401
    109  CG         2.5840  176.4570   22.6850 C.3    74  MET74       0.0596
    110  SD         2.2730  178.1630   23.1800 S.3    74  MET74      -0.1393
    111  CE         2.1070  178.9390   21.5920 C.3    74  MET74       0.0692
    112  N         -0.4250  173.7730   20.8690 N.am   75  CYS75      -0.1970
    113  CA        -1.7120  173.2060   20.5250 C.3    75  CYS75       0.1712
    114  C         -1.6960  171.7000   20.6870 C.2    75  CYS75       0.2296
    115  O         -2.5670  171.1390   21.3540 O.2    75  CYS75      -0.2864
    116  CB        -2.0820  173.5680   19.0880 C.3    75  CYS75       0.0983
    117  SG        -2.2900  175.3310   18.8300 S.3    75  CYS75      -0.0798
    118  N         -4.2000  182.2280   18.9470 N.3    92  LEU92      -0.1245
    119  CA        -3.5840  182.0410   17.6380 C.3    92  LEU92       0.1561
    120  C         -4.4570  182.6500   16.5520 C.2    92  LEU92       0.2260
    121  O         -3.9560  183.2630   15.6010 O.2    92  LEU92      -0.2867
    122  CB        -3.3810  180.5550   17.3540 C.3    92  LEU92       0.0270
    123  CG        -2.1160  179.9090   17.9060 C.3    92  LEU92       0.0019
    124  CD1       -2.2050  178.4150   17.6890 C.3    92  LEU92       0.0001
    125  CD2       -0.8970  180.4860   17.2070 C.3    92  LEU92       0.0001
    126  N         -3.9690  186.1880   16.2590 N.3    95  GLN95      -0.1231
    127  CA        -2.6620  186.5000   15.6910 C.3    95  GLN95       0.1698
    128  C         -2.6890  186.4520   14.1650 C.2    95  GLN95       0.2592
    129  O         -1.7940  186.9870   13.4980 O.2    95  GLN95      -0.2718
    130  CB        -1.5860  185.5460   16.2420 C.3    95  GLN95       0.0381
    131  CG        -1.3400  185.7080   17.7500 C.3    95  GLN95       0.0905
    132  CD        -0.1640  184.8910   18.2820 C.2    95  GLN95       0.2608
    133  OE1       -0.1720  183.6510   18.2460 O.2    95  GLN95      -0.2717
    134  NE2        0.8490  185.5880   18.7900 N.am   95  GLN95      -0.0878
    135  N         -3.7230  185.8290   13.6100 N.am   96  HIS96      -0.1976
    136  CA        -3.8430  185.7230   12.1540 C.3    96  HIS96       0.1656
    137  C         -4.9260  186.6360   11.5650 C.2    96  HIS96       0.2291
    138  O         -4.8620  187.0150   10.3860 O.2    96  HIS96      -0.2864
    139  CB        -4.1280  184.2680   11.7450 C.3    96  HIS96       0.0771
    140  CG        -2.9560  183.3460   11.9240 C.ar   96  HIS96       0.0820
    141  ND1       -2.5490  182.8360   13.1380 N.ar   96  HIS96      -0.2267
    142  CD2       -2.0730  182.8630   11.0110 C.ar   96  HIS96       0.1154
    143  CE1       -1.4590  182.0800   12.9230 C.ar   96  HIS96       0.1986
    144  NE2       -1.1340  182.0690   11.6460 N.ar   96  HIS96      -0.2212
    145  N         -4.3850  189.1840    8.4860 N.3    99  ARG99      -0.1245
    146  CA        -3.7690  188.3950    7.4260 C.3    99  ARG99       0.1563
    147  C         -4.8070  187.5700    6.6680 C.2    99  ARG99       0.2260
    148  O         -5.7200  186.9940    7.2680 O.2    99  ARG99      -0.2867
    149  CB        -2.6980  187.5030    8.0440 C.3    99  ARG99       0.0307
    150  CG        -1.6940  188.3160    8.8500 C.3    99  ARG99       0.0489
    151  CD        -1.0280  187.5220    9.9710 C.3    99  ARG99       0.2205
    152  NE        -0.2320  188.3900   10.8450 N.pl3  99  ARG99      -0.0865
    153  CZ         0.7470  189.1950   10.4250 C.cat  99  ARG99       0.5346
    154  NH1        1.0640  189.2540    9.1340 N.pl3  99  ARG99       0.1354
    155  NH2        1.4150  189.9470   11.2960 N.pl3  99  ARG99       0.1354
    156  N         -5.3370  184.5520    5.3880 N.3   101  VAL101     -0.1245
    157  CA        -5.1280  183.1130    5.2750 C.3   101  VAL101      0.1561
    158  C         -6.3950  182.4130    4.8150 C.2   101  VAL101      0.2260
    159  O         -7.3960  182.3850    5.5380 O.2   101  VAL101     -0.2867
    160  CB        -4.7060  182.5090    6.6160 C.3   101  VAL101      0.0252
    161  CG1       -3.2290  182.7640    6.8540 C.3   101  VAL101      0.0019
    162  CG2       -5.5450  183.1280    7.7380 C.3   101  VAL101      0.0019
    163  N         -4.8820  177.4430    2.3300 N.3   105  HIS105     -0.1226
    164  CA        -3.5500  177.7360    2.8520 C.3   105  HIS105      0.1752
    165  C         -3.2620  176.8260    4.0400 C.2   105  HIS105      0.2596
    166  O         -2.1790  176.2600    4.1480 O.2   105  HIS105     -0.2718
    167  CB        -3.4500  179.2070    3.2820 C.3   105  HIS105      0.0759
    168  CG        -3.2240  180.1570    2.1460 C.ar  105  HIS105      0.0818
    169  ND1       -3.2330  181.5260    2.3080 N.ar  105  HIS105     -0.2268
    170  CD2       -2.9500  179.9350    0.8370 C.ar  105  HIS105      0.1154
    171  CE1       -2.9710  182.1070    1.1480 C.ar  105  HIS105      0.1986
    172  NE2       -2.7950  181.1650    0.2400 N.ar  105  HIS105     -0.2212
    173  N         -4.2390  176.6800    4.9290 N.am  106  TYR106     -0.1976
    174  CA        -4.0610  175.8260    6.0930 C.3   106  TYR106      0.1639
    175  C         -3.9450  174.3800    5.6570 C.2   106  TYR106      0.2290
    176  O         -3.1940  173.6030    6.2480 O.2   106  TYR106     -0.2864
    177  CB        -5.2280  175.9720    7.0620 C.3   106  TYR106      0.0560
    178  CG        -5.2470  177.2730    7.8240 C.ar  106  TYR106     -0.0198
    179  CD1       -5.7020  178.4470    7.2310 C.ar  106  TYR106     -0.0009
    180  CD2       -4.8470  177.3190    9.1560 C.ar  106  TYR106     -0.0009
    181  CE1       -5.7670  179.6360    7.9480 C.ar  106  TYR106      0.0417
    182  CE2       -4.9060  178.4990    9.8830 C.ar  106  TYR106      0.0417
    183  CZ        -5.3720  179.6560    9.2770 C.ar  106  TYR106      0.1957
    184  OH        -5.4760  180.8190   10.0110 O.3   106  TYR106     -0.2866
    185  N         -0.2240  173.9720    4.6600 N.3   109  VAL109     -0.1231
    186  CA         0.6230  173.9050    5.8430 C.3   109  VAL109      0.1692
    187  C          0.3900  172.5900    6.6000 C.2   109  VAL109      0.2592
    188  O          1.3500  171.9180    6.9970 O.2   109  VAL109     -0.2718
    189  CB         0.3640  175.1080    6.7880 C.3   109  VAL109      0.0266
    190  CG1        0.8720  174.7980    8.1880 C.3   109  VAL109      0.0020
    191  CG2        1.0720  176.3470    6.2520 C.3   109  VAL109      0.0020
    192  N         -0.8700  172.2150    6.7970 N.am  110  ASN110     -0.1974
    193  CA        -1.1640  170.9680    7.4960 C.3   110  ASN110      0.1688
    194  C         -0.4810  169.8070    6.7910 C.2   110  ASN110      0.2292
    195  O          0.2350  169.0180    7.4110 O.2   110  ASN110     -0.2864
    196  CB        -2.6690  170.7220    7.5530 C.3   110  ASN110      0.1181
    197  CG        -3.3070  171.3330    8.7780 C.2   110  ASN110      0.2629
    198  OD1       -4.5230  171.2610    8.9620 O.2   110  ASN110     -0.2716
    199  ND2       -2.4850  171.9370    9.6330 N.am  110  ASN110     -0.0877
    200  N          3.2980  169.8940    7.2900 N.3   113  VAL113     -0.1245
    201  CA         3.6720  169.4450    8.6140 C.3   113  VAL113      0.1561
    202  C          3.6420  167.9220    8.6990 C.2   113  VAL113      0.2260
    203  O          4.5540  167.3030    9.2660 O.2   113  VAL113     -0.2867
    204  CB         2.7370  170.0410    9.6750 C.3   113  VAL113      0.0252
    205  CG1        2.8880  169.2910   11.0060 C.3   113  VAL113      0.0019
    206  CG2        3.0650  171.5180    9.8540 C.3   113  VAL113      0.0019
    207  N         -4.9570  167.6760   13.2850 N.3   135  LEU135     -0.1245
    208  CA        -4.3600  168.9110   12.8110 C.3   135  LEU135      0.1561
    209  C         -5.4720  169.8720   12.4250 C.2   135  LEU135      0.2260
    210  O         -5.3770  171.0700   12.6720 O.2   135  LEU135     -0.2867
    211  CB        -3.4480  168.6480   11.6270 C.3   135  LEU135      0.0270
    212  CG        -2.0080  168.3970   12.0480 C.3   135  LEU135      0.0019
    213  CD1       -1.1880  167.9160   10.8620 C.3   135  LEU135      0.0001
    214  CD2       -1.4390  169.6900   12.6110 C.3   135  LEU135      0.0001
    215  N         -6.9250  171.8920   15.1570 N.3   138  ILE138     -0.1231
    216  CA        -6.1020  173.0490   15.4610 C.3   138  ILE138      0.1692
    217  C         -6.3040  174.1320   14.4220 C.2   138  ILE138      0.2592
    218  O         -6.5280  175.2940   14.7590 O.2   138  ILE138     -0.2718
    219  CB        -4.6170  172.6600   15.5060 C.3   138  ILE138      0.0266
    220  CG1       -4.4220  171.5460   16.5400 C.3   138  ILE138      0.0019
    221  CG2       -3.7700  173.8720   15.8520 C.3   138  ILE138      0.0020
    222  CD1       -2.9850  171.1260   16.7310 C.3   138  ILE138      0.0001
    223  N         -6.2230  173.7420   13.1580 N.am  139  THR139     -0.1953
    224  CA        -6.4000  174.6760   12.0620 C.3   139  THR139      0.1897
    225  C         -7.7670  175.3550   12.1350 C.2   139  THR139      0.2313
    226  O         -7.8510  176.5860   12.1420 O.2   139  THR139     -0.2863
    227  CB        -6.2290  173.9490   10.7090 C.3   139  THR139      0.1794
    228  OG1       -4.8920  174.1550   10.2350 O.3   139  THR139     -0.2208
    229  CG2       -7.2490  174.4440    9.6700 C.3   139  THR139      0.0378
    230  N         -7.7970  178.0830   14.6930 N.3   142  ILE142     -0.1245
    231  CA        -7.1330  179.3120   14.2850 C.3   142  ILE142      0.1561
    232  C         -7.9950  179.9740   13.2190 C.2   142  ILE142      0.2260
    233  O         -8.0280  181.2000   13.0990 O.2   142  ILE142     -0.2867
    234  CB        -5.7450  179.0250   13.6780 C.3   142  ILE142      0.0252
    235  CG1       -4.9130  178.1830   14.6500 C.3   142  ILE142      0.0019
    236  CG2       -5.0420  180.3390   13.3540 C.3   142  ILE142      0.0019
    237  CD1       -3.5560  177.7610   14.0980 C.3   142  ILE142      0.0001
@<TRIPOS>BOND
     1    22    23    1
     2    23    24    1
     3    23    26    1
     4    18    17    2
     5    24    25    2
     6   172   170   ar
     7   172   171   ar
     8    17    16    1
     9   170   168   ar
    10   171   169   ar
    11    27    28    1
    12    16    15    1
    13    16    19    1
    14   168   169   ar
    15   168   167    1
    16    32    33    1
    17    32    31    1
    18   163   164    1
    19    20    19    1
    20     4     3    2
    21    33    34    1
    22   164   167    1
    23   164   165    1
    24    28    31    1
    25    28    29    1
    26    19    21    1
    27     3     2    1
    28    35    29   am
    29    35    36    1
    30    29    30    2
    31   165   166    2
    32   165   173   am
    33    41    43   ar
    34    41    40   ar
    35    37    38    2
    36    37    36    1
    37    43    45   ar
    38    36    39    1
    39   185   186    1
    40   158   157    1
    41   158   159    2
    42    39    40    1
    43   173   174    1
    44     2     5    1
    45     2     1    1
    46    40    42   ar
    47   157   156    1
    48   157   160    1
    49    46    47    1
    50   175   174    1
    51   175   176    2
    52    11    13   ar
    53    11     8   ar
    54     5     6    1
    55    45    44   ar
    56   186   187    1
    57   186   189    1
    58    13    14   ar
    59   174   177    1
    60   191   189    1
    61    42    44   ar
    62    59    60    2
    63    59    58    1
    64   187   192   am
    65   187   188    2
    66   160   161    1
    67   160   162    1
    68   147   148    2
    69   147   146    1
    70     8     6   ar
    71     8    10   ar
    72    47    48    1
    73    47    50    1
    74   189   190    1
    75   194   195    2
    76   194   193    1
    77   192   193    1
    78     6     7   ar
    79   177   178    1
    80    57    48   am
    81    57    58    1
    82    14    12   ar
    83   179   178   ar
    84   179   181   ar
    85   200   201    1
    86    48    49    2
    87   146   149    1
    88   146   145    1
    89   193   196    1
    90   196   197    1
    91    58    61    1
    92    63    61    1
    93   178   180   ar
    94    50    51    1
    95   181   183   ar
    96    10    12   ar
    97    10     9   ar
    98   149   150    1
    99     7     9   ar
   100    61    62    1
   101   201   202    1
   102   201   204    1
   103   202   203    2
   104   197   198    2
   105   197   199   am
   106   150   151    1
   107    51    52    1
   108   154   153    1
   109   180   182   ar
   110   183   182   ar
   111   183   184    1
   112    71    73   ar
   113    71    69   ar
   114    73    72   ar
   115   229   227    1
   116   204   206    1
   117   204   205    1
   118   151   152    1
   119   228   227    1
   120    52    53    1
   121    69    68    1
   122    69    70   ar
   123   138   137    2
   124   153   152    2
   125   153   155    1
   126    72    70   ar
   127    68    65    1
   128   227   224    1
   129   213   212    1
   130   142   144   ar
   131   142   140   ar
   132    53    54    2
   133   137   136    1
   134   211   212    1
   135   211   208    1
   136   144   143   ar
   137   139   140    1
   138   139   136    1
   139    91    89    1
   140   140   141   ar
   141   212   214    1
   142   224   225    1
   143   224   223    1
   144    90    89    1
   145    65    66    1
   146    65    64    1
   147    55    54    1
   148    54    56    1
   149   225   226    2
   150   136   135    1
   151    66    67    2
   152   209   210    2
   153   209   208    1
   154    89    86    1
   155   208   207    1
   156   143   141   ar
   157   233   232    2
   158   223   217   am
   159   232   231    1
   160   236   234    1
   161    84    82    1
   162   129   128    2
   163   103   101    1
   164   135   128   am
   165   234   231    1
   166   234   235    1
   167   237   235    1
   168    86    85    1
   169    86    87    1
   170   128   127    1
   171   231   230    1
   172   217   218    2
   173   217   216    1
   174   102   101    1
   175    82    81    2
   176    82    83    1
   177    85    76   am
   178    87    88    2
   179   101   100    1
   180    81    80    1
   181   215   216    1
   182   216   219    1
   183   219   221    1
   184   219   220    1
   185   121   120    2
   186   100    97    1
   187    74    75    1
   188   127   130    1
   189   127   126    1
   190    76    75    1
   191    76    77    2
   192    78    75    1
   193    78    79    1
   194   130   131    1
   195    80    79    1
   196   220   222    1
   197   120   119    1
   198    97    96    1
   199    97    98    1
   200    96    94   am
   201   125   123    1
   202   122   119    1
   203   122   123    1
   204   119   118    1
   205   124   123    1
   206   131   132    1
   207    98    99    2
   208    92    93    1
   209   133   132    2
   210   132   134   am
   211    94    93    1
   212    94    95    2
   213   117   116    1
   214   116   113    1
   215   113   114    1
   216   113   112    1
   217   114   115    2
   218   112   106   am
   219   104   105    1
   220   111   110    1
   221   106   105    1
   222   106   107    2
   223   105   108    1
   224   108   109    1
   225   109   110    1
