@<TRIPOS>MOLECULE
tmp/1yi1A00.pdb
 84 81 0 0 0
SMALL
GASTEIGER

@<TRIPOS>ATOM
      1  N         58.0710   57.2100   57.2340 N.3   265  MET265     -0.1230
      2  CA        58.0110   55.8560   56.6950 C.3   265  MET265      0.1702
      3  C         59.2240   55.0250   57.0730 C.2   265  MET265      0.2592
      4  O         59.1080   53.8320   57.3550 O.2   265  MET265     -0.2718
      5  CB        57.8820   55.9190   55.1740 C.3   265  MET265      0.0401
      6  CG        58.0250   54.5990   54.4690 C.3   265  MET265      0.0596
      7  SD        57.5890   54.7670   52.7420 S.3   265  MET265     -0.1393
      8  CE        55.7940   54.6230   52.8740 C.3   265  MET265      0.0692
      9  N         60.3860   55.6670   57.0780 N.am  266  HIS266     -0.1976
     10  CA        61.6270   55.0040   57.4270 C.3   266  HIS266      0.1656
     11  C         62.2750   55.6520   58.6400 C.2   266  HIS266      0.2291
     12  O         63.4900   55.5750   58.8240 O.2   266  HIS266     -0.2864
     13  CB        62.5800   55.0450   56.2430 C.3   266  HIS266      0.0771
     14  CG        62.1760   54.1490   55.1150 C.ar  266  HIS266      0.0820
     15  ND1       62.1170   52.7780   55.2410 N.ar  266  HIS266     -0.2267
     16  CD2       61.7940   54.4270   53.8460 C.ar  266  HIS266      0.1154
     17  CE1       61.7140   52.2510   54.0980 C.ar  266  HIS266      0.1986
     18  NE2       61.5120   53.2300   53.2360 N.ar  266  HIS266     -0.2212
     19  N         52.9420   62.9150   53.3400 N.3   290  ASP290     -0.1225
     20  CA        52.4220   61.5750   53.5860 C.3   290  ASP290      0.1805
     21  C         53.5070   60.5740   53.9930 C.2   290  ASP290      0.2597
     22  O         53.2200   59.6100   54.7040 O.2   290  ASP290     -0.2718
     23  CB        51.6310   61.0530   52.3730 C.3   290  ASP290      0.1424
     24  CG        52.4900   60.8620   51.1420 C.2   290  ASP290      0.3668
     25  OD1       52.8200   61.8630   50.4630 O.co2 290  ASP290     -0.2456
     26  OD2       52.8390   59.6950   50.8610 O.co2 290  ASP290     -0.2456
     27  N         54.7500   60.7950   53.5650 N.am  291  ARG291     -0.1979
     28  CA        55.8180   59.8760   53.9510 C.3   291  ARG291      0.1597
     29  C         56.1340   60.1090   55.4210 C.2   291  ARG291      0.2287
     30  O         57.0530   59.5090   55.9660 O.2   291  ARG291     -0.2864
     31  CB        57.1000   60.0990   53.1340 C.3   291  ARG291      0.0334
     32  CG        56.8920   60.3780   51.6700 C.3   291  ARG291      0.0492
     33  CD        55.8130   59.5000   51.0910 C.3   291  ARG291      0.2205
     34  NE        56.2990   58.1770   50.7340 N.pl3 291  ARG291     -0.0865
     35  CZ        55.5510   57.2680   50.1180 C.cat 291  ARG291      0.5346
     36  NH1       54.2900   57.5510   49.8040 N.pl3 291  ARG291      0.1354
     37  NH2       56.0660   56.0880   49.7960 N.pl3 291  ARG291      0.1354
     38  N         68.2400   56.5250   51.9490 N.3   404  MET404     -0.1245
     39  CA        67.7290   56.3360   53.3020 C.3   404  MET404      0.1570
     40  C         68.8610   55.9450   54.2520 C.2   404  MET404      0.2261
     41  O         68.9090   56.3920   55.3940 O.2   404  MET404     -0.2867
     42  CB        66.6340   55.2640   53.3170 C.3   404  MET404      0.0387
     43  CG        65.4910   55.5450   52.3610 C.3   404  MET404      0.0595
     44  SD        64.8220   57.2110   52.5630 S.3   404  MET404     -0.1393
     45  CE        63.8480   56.9660   54.0170 C.3   404  MET404      0.0692
     46  N         65.4150   50.4960   46.1220 N.3   484  MET484     -0.1230
     47  CA        64.1160   50.8120   46.6920 C.3   484  MET484      0.1702
     48  C         62.9600   50.1340   45.9870 C.2   484  MET484      0.2592
     49  O         62.0280   49.6700   46.6340 O.2   484  MET484     -0.2718
     50  CB        63.8870   52.3220   46.7270 C.3   484  MET484      0.0401
     51  CG        62.7100   52.7190   47.6150 C.3   484  MET484      0.0596
     52  SD        62.7530   51.9060   49.2370 S.3   484  MET484     -0.1393
     53  CE        64.0430   52.8190   50.0350 C.3   484  MET484      0.0692
     54  N         63.0060   50.0780   44.6630 N.am  485  VAL485     -0.1980
     55  CA        61.9290   49.4190   43.9350 C.3   485  VAL485      0.1595
     56  C         62.0020   47.9240   44.2410 C.2   485  VAL485      0.2287
     57  O         60.9760   47.2660   44.4320 O.2   485  VAL485     -0.2864
     58  CB        62.0500   49.6430   42.4170 C.3   485  VAL485      0.0276
     59  CG1       60.8790   49.0030   41.6980 C.3   485  VAL485      0.0022
     60  CG2       62.0910   51.1290   42.1260 C.3   485  VAL485      0.0022
     61  N         60.4600   46.8170   47.4500 N.3   488  TRP488     -0.1241
     62  CA        59.0090   46.7690   47.3660 C.3   488  TRP488      0.1605
     63  C         58.5450   45.5010   46.6490 C.2   488  TRP488      0.2264
     64  O         57.4920   44.9510   46.9740 O.2   488  TRP488     -0.2867
     65  CB        58.4630   48.0420   46.6950 C.3   488  TRP488      0.0550
     66  CG        58.2880   49.1960   47.6780 C.ar  488  TRP488      0.0003
     67  CD1       59.2510   49.7480   48.4840 C.ar  488  TRP488      0.0946
     68  CD2       57.0710   49.8840   47.9940 C.ar  488  TRP488      0.0152
     69  NE1       58.7030   50.7240   49.2830 N.ar  488  TRP488     -0.2442
     70  CE2       57.3680   50.8290   49.0030 C.ar  488  TRP488      0.0810
     71  CE3       55.7540   49.7900   47.5240 C.ar  488  TRP488      0.0012
     72  CZ2       56.3910   51.6730   49.5510 C.ar  488  TRP488      0.0191
     73  CZ3       54.7880   50.6330   48.0700 C.ar  488  TRP488      0.0001
     74  CH2       55.1120   51.5590   49.0720 C.ar  488  TRP488      0.0015
     75  N         53.0660   52.5640   53.0450 N.3   567  SER567     -0.1202
     76  CA        52.3260   53.7300   52.5870 C.3   567  SER567      0.2020
     77  C         50.8900   53.8280   53.1020 C.2   567  SER567      0.2619
     78  O         50.0620   52.9600   52.8300 O.2   567  SER567     -0.2717
     79  CB        52.3280   53.7500   51.0540 C.3   567  SER567      0.2103
     80  OG        51.9910   55.0310   50.5470 O.3   567  SER567     -0.2182
     81  N         50.6070   54.8990   53.8410 N.am  568  GLY568     -0.1956
     82  CA        49.2730   55.1100   54.3780 C.3   568  GLY568      0.1869
     83  C         48.9750   54.3230   55.6400 C.2   568  GLY568      0.2309
     84  O         47.8160   54.1500   56.0130 O.2   568  GLY568     -0.2863
@<TRIPOS>BOND
     1    59    58    1
     2    60    58    1
     3    58    55    1
     4    55    56    1
     5    55    54    1
     6    56    57    2
     7    54    48   am
     8    48    49    2
     9    48    47    1
    10    46    47    1
    11    63    64    2
    12    63    62    1
    13    47    50    1
    14    65    62    1
    15    65    66    1
    16    50    51    1
    17    62    61    1
    18    71    68   ar
    19    71    73   ar
    20    51    52    1
    21    66    68   ar
    22    66    67   ar
    23    68    70   ar
    24    73    74   ar
    25    67    69   ar
    26    70    69   ar
    27    70    72   ar
    28    74    72   ar
    29    52    53    1
    30    37    35    1
    31    36    35    1
    32    35    34    2
    33    25    24   ar
    34    80    79    1
    35    34    33    1
    36    26    24   ar
    37    79    76    1
    38    33    32    1
    39    24    23    1
    40    32    31    1
    41    38    39    1
    42    43    44    1
    43    43    42    1
    44    23    20    1
    45    44    45    1
    46    76    75    1
    47    76    77    1
    48     7     8    1
    49     7     6    1
    50    78    77    2
    51    77    81   am
    52    31    28    1
    53    18    16   ar
    54    18    17   ar
    55    39    42    1
    56    39    40    1
    57    19    20    1
    58    27    28    1
    59    27    21   am
    60    20    21    1
    61    81    82    1
    62    16    14   ar
    63    28    29    1
    64    21    22    2
    65    17    15   ar
    66    40    41    2
    67    82    83    1
    68     6     5    1
    69    14    15   ar
    70    14    13    1
    71     5     2    1
    72    29    30    2
    73    83    84    2
    74    13    10    1
    75     2     3    1
    76     2     1    1
    77     3     9   am
    78     3     4    2
    79     9    10    1
    80    10    11    1
    81    11    12    2
