@<TRIPOS>MOLECULE
tmp/1yi3A00.pdb
 143 133 0 0 0
SMALL
GASTEIGER

@<TRIPOS>ATOM
      1  N        -24.9620   33.3300   -4.9010 N.3    12  LEU12      -0.1231
      2  CA       -24.0830   34.4320   -5.2580 C.3    12  LEU12       0.1693
      3  C        -22.8800   33.9400   -6.0460 C.2    12  LEU12       0.2593
      4  O        -22.3910   34.6320   -6.9360 O.2    12  LEU12      -0.2718
      5  CB       -23.6240   35.1730   -4.0030 C.3    12  LEU12       0.0284
      6  CG       -24.6630   36.1170   -3.3950 C.3    12  LEU12       0.0019
      7  CD1      -24.1550   36.6660   -2.0810 C.3    12  LEU12       0.0001
      8  CD2      -24.9470   37.2540   -4.3630 C.3    12  LEU12       0.0001
      9  N        -22.4190   32.7360   -5.7220 N.am   13  GLY13      -0.1942
     10  CA       -21.2720   32.1610   -6.4030 C.3    13  GLY13       0.2014
     11  C        -20.7060   31.0020   -5.6120 C.2    13  GLY13       0.2639
     12  O        -21.1190   30.7630   -4.4790 O.2    13  GLY13      -0.2714
     13  N        -19.7620   30.2750   -6.1960 N.am   14  SER14      -0.1949
     14  CA       -19.1670   29.1400   -5.5050 C.3    14  SER14       0.1924
     15  C        -17.7880   28.7970   -6.0400 C.2    14  SER14       0.2314
     16  O        -17.3130   29.3930   -7.0070 O.2    14  SER14      -0.2863
     17  CB       -20.0560   27.9100   -5.6450 C.3    14  SER14       0.2116
     18  OG       -20.0230   27.4280   -6.9780 O.3    14  SER14      -0.2180
     19  N        -13.9280   26.8790   -2.2240 N.3    17  PHE17      -0.1241
     20  CA       -14.2360   27.4800   -0.9290 C.3    17  PHE17       0.1605
     21  C        -15.6900   27.2540   -0.4890 C.2    17  PHE17       0.2264
     22  O        -16.0990   27.7160    0.5790 O.2    17  PHE17      -0.2867
     23  CB       -13.9780   28.9780   -1.0130 C.3    17  PHE17       0.0534
     24  CG       -14.6270   29.6230   -2.2030 C.ar   17  PHE17      -0.0203
     25  CD1      -13.9880   29.6320   -3.4440 C.ar   17  PHE17      -0.0042
     26  CD2      -15.9060   30.1710   -2.1000 C.ar   17  PHE17      -0.0042
     27  CE1      -14.6140   30.1790   -4.5680 C.ar   17  PHE17      -0.0003
     28  CE2      -16.5390   30.7160   -3.2130 C.ar   17  PHE17      -0.0003
     29  CZ       -15.8930   30.7220   -4.4520 C.ar   17  PHE17      -0.0000
     30  N        -21.8950   30.2270   -1.7760 N.3    20  VAL20      -0.1245
     31  CA       -22.3920   31.3770   -1.0300 C.3    20  VAL20       0.1561
     32  C        -23.7160   31.8820   -1.5940 C.2    20  VAL20       0.2260
     33  O        -23.8260   32.1510   -2.7910 O.2    20  VAL20      -0.2867
     34  CB       -21.3610   32.5230   -1.0550 C.3    20  VAL20       0.0252
     35  CG1      -21.8780   33.7220   -0.2740 C.3    20  VAL20       0.0019
     36  CG2      -20.0470   32.0360   -0.4730 C.3    20  VAL20       0.0019
     37  N        -25.0000   36.9480    4.1820 N.3    33  ALA33      -0.1245
     38  CA       -24.4180   36.0670    3.1870 C.3    33  ALA33       0.1562
     39  C        -24.3210   34.7110    3.8560 C.2    33  ALA33       0.2260
     40  O        -23.7850   34.5940    4.9540 O.2    33  ALA33      -0.2867
     41  CB       -23.0400   36.5580    2.7830 C.3    33  ALA33       0.0290
     42  N        -22.7640   31.0950    3.7000 N.3    35  LYS35      -0.1245
     43  CA       -21.6940   30.2970    3.1220 C.3    35  LYS35       0.1561
     44  C        -21.7710   28.8440    3.5780 C.2    35  LYS35       0.2260
     45  O        -21.8160   28.5540    4.7720 O.2    35  LYS35      -0.2867
     46  CB       -20.3470   30.9030    3.5200 C.3    35  LYS35       0.0271
     47  CG       -19.1370   30.3590    2.7860 C.3    35  LYS35       0.0035
     48  CD       -17.9160   31.2030    3.1300 C.3    35  LYS35       0.0206
     49  CE       -16.6950   30.8130    2.3130 C.3    35  LYS35       0.1093
     50  NZ       -15.5870   31.7930    2.4970 N.3    35  LYS35      -0.1314
     51  N        -15.1180   41.6220    6.6960 N.3    68  ILE68      -0.1245
     52  CA       -16.4690   41.0830    6.7800 C.3    68  ILE68       0.1561
     53  C        -16.6290   40.4130    8.1370 C.2    68  ILE68       0.2260
     54  O        -15.7490   39.6790    8.5840 O.2    68  ILE68      -0.2867
     55  CB       -16.7470   40.0510    5.6550 C.3    68  ILE68       0.0252
     56  CG1      -17.2950   40.7650    4.4200 C.3    68  ILE68       0.0019
     57  CG2      -17.7390   38.9960    6.1250 C.3    68  ILE68       0.0019
     58  CD1      -18.6600   41.3830    4.6060 C.3    68  ILE68       0.0001
     59  N        -22.3930   35.4340    7.2100 N.3    84  LEU84      -0.1231
     60  CA       -21.5450   36.6130    7.0900 C.3    84  LEU84       0.1693
     61  C        -22.4110   37.8250    6.7920 C.2    84  LEU84       0.2592
     62  O        -23.5000   37.6940    6.2400 O.2    84  LEU84      -0.2718
     63  CB       -20.5340   36.4490    5.9510 C.3    84  LEU84       0.0284
     64  CG       -19.3900   35.4360    6.0320 C.3    84  LEU84       0.0019
     65  CD1      -18.8010   35.4740    7.4300 C.3    84  LEU84       0.0001
     66  CD2      -19.8750   34.0470    5.6930 C.3    84  LEU84       0.0001
     67  N        -21.9280   39.0080    7.1500 N.am   85  GLU85      -0.1966
     68  CA       -22.6870   40.2160    6.8780 C.3    85  GLU85       0.1733
     69  C        -22.6590   40.4350    5.3710 C.2    85  GLU85       0.2616
     70  O        -21.7630   39.9430    4.6820 O.2    85  GLU85      -0.2715
     71  CB       -22.0610   41.4220    7.5800 C.3    85  GLU85       0.0429
     72  CG       -20.9000   42.0550    6.8230 C.3    85  GLU85       0.1163
     73  CD       -20.2490   43.1970    7.5840 C.2    85  GLU85       0.3649
     74  OE1      -19.7700   42.9500    8.7110 O.co2  85  GLU85      -0.2457
     75  OE2      -20.2150   44.3350    7.0600 O.co2  85  GLU85      -0.2457
     76  N        -23.6460   41.1590    4.8570 N.am   86  ARG86      -0.1977
     77  CA       -23.7080   41.4560    3.4300 C.3    86  ARG86       0.1597
     78  C        -24.1720   42.8840    3.2120 C.2    86  ARG86       0.2287
     79  O        -25.2910   43.2450    3.5710 O.2    86  ARG86      -0.2864
     80  CB       -24.6550   40.5050    2.6940 C.3    86  ARG86       0.0334
     81  CG       -24.8860   40.9050    1.2330 C.3    86  ARG86       0.0492
     82  CD       -25.6070   39.8270    0.4280 C.3    86  ARG86       0.2205
     83  NE       -26.9660   39.5730    0.9000 N.pl3  86  ARG86      -0.0865
     84  CZ       -27.9990   40.3860    0.7000 C.cat  86  ARG86       0.5346
     85  NH1      -27.8440   41.5180    0.0290 N.pl3  86  ARG86       0.1354
     86  NH2      -29.1910   40.0700    1.1820 N.pl3  86  ARG86       0.1354
     87  N        -23.6140   46.4400   -3.1970 N.3    90  VAL90      -0.1231
     88  CA       -22.2190   46.0470   -3.1080 C.3    90  VAL90       0.1692
     89  C        -21.7210   45.4620   -4.4230 C.2    90  VAL90       0.2592
     90  O        -22.5060   45.0110   -5.2620 O.2    90  VAL90      -0.2718
     91  CB       -22.0040   44.9960   -1.9970 C.3    90  VAL90       0.0266
     92  CG1      -22.6420   43.6700   -2.4050 C.3    90  VAL90       0.0020
     93  CG2      -20.5210   44.8200   -1.7170 C.3    90  VAL90       0.0020
     94  N        -20.4030   45.4780   -4.5850 N.am   91  GLN91      -0.1966
     95  CA       -19.7500   44.9400   -5.7700 C.3    91  GLN91       0.1733
     96  C        -18.3190   44.6190   -5.3640 C.2    91  GLN91       0.2616
     97  O        -17.7120   45.3750   -4.6030 O.2    91  GLN91      -0.2715
     98  CB       -19.7390   45.9740   -6.8950 C.3    91  GLN91       0.0408
     99  CG       -19.4450   45.3800   -8.2560 C.3    91  GLN91       0.0908
    100  CD       -19.3910   46.4200   -9.3600 C.2    91  GLN91       0.2608
    101  OE1      -19.5260   46.0940  -10.5400 O.2    91  GLN91      -0.2717
    102  NE2      -19.1820   47.6760   -8.9850 N.am   91  GLN91      -0.0878
    103  N        -17.7780   43.5020   -5.8450 N.am   92  ASP92      -0.1971
    104  CA       -16.4060   43.1660   -5.4950 C.3    92  ASP92       0.1709
    105  C        -15.4520   43.9370   -6.4070 C.2    92  ASP92       0.2293
    106  O        -15.8200   44.3180   -7.5200 O.2    92  ASP92      -0.2864
    107  CB       -16.1740   41.6440   -5.5560 C.3    92  ASP92       0.1436
    108  CG       -16.2190   41.0750   -6.9630 C.2    92  ASP92       0.3671
    109  OD1      -16.4890   39.8610   -7.0810 O.co2  92  ASP92      -0.2456
    110  OD2      -15.9680   41.8100   -7.9400 O.co2  92  ASP92      -0.2456
    111  N        -10.9710   39.9110   -5.9880 N.3   134  GLU134     -0.1245
    112  CA       -12.1850   39.1340   -5.7680 C.3   134  GLU134      0.1567
    113  C        -12.5850   39.0980   -4.2960 C.2   134  GLU134      0.2260
    114  O        -13.7720   39.1320   -3.9740 O.2   134  GLU134     -0.2867
    115  CB       -12.0100   37.7040   -6.2750 C.3   134  GLU134      0.0388
    116  CG       -11.7690   37.6010   -7.7670 C.3   134  GLU134      0.1160
    117  CD       -11.6740   36.1620   -8.2410 C.2   134  GLU134      0.3649
    118  OE1      -12.6830   35.4370   -8.1280 O.co2 134  GLU134     -0.2457
    119  OE2      -10.5910   35.7550   -8.7200 O.co2 134  GLU134     -0.2457
    120  N        -14.7390   43.5390   -1.1480 N.3   137  LEU137     -0.1245
    121  CA       -16.0750   44.0460   -1.4290 C.3   137  LEU137      0.1561
    122  C        -16.1440   45.5540   -1.2600 C.2   137  LEU137      0.2260
    123  O        -15.5080   46.1150   -0.3680 O.2   137  LEU137     -0.2867
    124  CB       -17.0920   43.3880   -0.4920 C.3   137  LEU137      0.0270
    125  CG       -17.7830   42.1010   -0.9570 C.3   137  LEU137      0.0019
    126  CD1      -16.7770   41.1480   -1.5710 C.3   137  LEU137      0.0001
    127  CD2      -18.5070   41.4630    0.2250 C.3   137  LEU137      0.0001
    128  N        -12.8530   39.8620    2.5270 N.3   148  ILE148     -0.1231
    129  CA       -13.6340   38.6360    2.6640 C.3   148  ILE148      0.1692
    130  C        -12.9190   37.3310    2.3570 C.2   148  ILE148      0.2592
    131  O        -11.8590   37.3060    1.7360 O.2   148  ILE148     -0.2718
    132  CB       -14.8680   38.6430    1.7470 C.3   148  ILE148      0.0266
    133  CG1      -14.4150   38.6220    0.2880 C.3   148  ILE148      0.0019
    134  CG2      -15.7170   39.8590    2.0070 C.3   148  ILE148      0.0020
    135  CD1      -15.5350   38.3920   -0.6920 C.3   148  ILE148      0.0001
    136  N        -13.5540   36.2470    2.7900 N.am  149  ASP149     -0.1974
    137  CA       -13.0890   34.8870    2.5690 C.3   149  ASP149      0.1709
    138  C        -11.7170   34.5540    3.1440 C.2   149  ASP149      0.2293
    139  O        -10.7040   34.6270    2.4490 O.2   149  ASP149     -0.2864
    140  CB       -13.1160   34.5830    1.0680 C.3   149  ASP149      0.1436
    141  CG       -12.9920   33.0990    0.7660 C.2   149  ASP149      0.3671
    142  OD1      -13.0000   32.7360   -0.4350 O.co2 149  ASP149     -0.2456
    143  OD2      -12.8880   32.2970    1.7240 O.co2 149  ASP149     -0.2456
@<TRIPOS>BOND
     1   101   100    2
     2   100   102   am
     3   100    99    1
     4   119   117   ar
     5    99    98    1
     6   117   118   ar
     7   117   116    1
     8   110   108   ar
     9   116   115    1
    10   106   105    2
    11   109   108   ar
    12    16    15    2
    13    18    17    1
    14   108   107    1
    15     4     3    2
    16    98    95    1
    17   105   104    1
    18    10     9    1
    19    10    11    1
    20   115   112    1
    21    13    11   am
    22    13    14    1
    23     3     9   am
    24     3     2    1
    25    15    14    1
    26   111   112    1
    27   103   104    1
    28   103    96   am
    29    95    96    1
    30    95    94    1
    31   112   113    1
    32    17    14    1
    33    11    12    2
    34   107   104    1
    35    96    97    2
    36    90    89    2
    37     2     1    1
    38     2     5    1
    39    94    89   am
    40    27    29   ar
    41    27    25   ar
    42    29    28   ar
    43    89    88    1
    44     8     6    1
    45   113   114    2
    46     5     6    1
    47    25    24   ar
    48     6     7    1
    49    28    26   ar
    50    87    88    1
    51    88    91    1
    52    33    32    2
    53    92    91    1
    54    19    20    1
    55    24    26   ar
    56    24    23    1
    57    91    93    1
    58    30    31    1
    59    32    31    1
    60   126   125    1
    61   121   122    1
    62   121   120    1
    63   121   124    1
    64   122   123    2
    65    34    31    1
    66    34    36    1
    67    34    35    1
    68    23    20    1
    69   125   124    1
    70   125   127    1
    71    20    21    1
    72   135   133    1
    73    21    22    2
    74   142   141   ar
    75    85    84    1
    76   133   132    1
    77    82    83    1
    78    82    81    1
    79    84    83    2
    80    84    86    1
    81   141   140    1
    82   141   143   ar
    83   140   137    1
    84    81    80    1
    85   131   130    2
    86   132   134    1
    87   132   129    1
    88    49    50    1
    89    49    48    1
    90   130   129    1
    91   130   136   am
    92   139   138    2
    93   128   129    1
    94   137   136    1
    95   137   138    1
    96    80    77    1
    97    41    38    1
    98    47    48    1
    99    47    46    1
   100    43    46    1
   101    43    44    1
   102    43    42    1
   103    38    39    1
   104    38    37    1
   105    78    77    1
   106    78    79    2
   107    77    76    1
   108    44    45    2
   109    39    40    2
   110    56    58    1
   111    56    55    1
   112    70    69    2
   113    76    69   am
   114    69    68    1
   115    55    57    1
   116    55    52    1
   117    66    64    1
   118    63    64    1
   119    63    60    1
   120    64    65    1
   121    62    61    2
   122    51    52    1
   123    52    53    1
   124    61    60    1
   125    61    67   am
   126    72    71    1
   127    72    73    1
   128    68    67    1
   129    68    71    1
   130    75    73   ar
   131    60    59    1
   132    73    74   ar
   133    53    54    2
