@<TRIPOS>MOLECULE
tmp/1yi4A00.pdb
 152 142 0 0 0
SMALL
GASTEIGER

@<TRIPOS>ATOM
      1  N        -25.5080   33.9410   -4.6800 N.3    12  LEU12      -0.1231
      2  CA       -24.6370   35.0570   -5.0420 C.3    12  LEU12       0.1693
      3  C        -23.4770   34.5820   -5.9150 C.2    12  LEU12       0.2592
      4  O        -23.2730   35.0740   -7.0240 O.2    12  LEU12      -0.2718
      5  CB       -24.0910   35.7320   -3.7840 C.3    12  LEU12       0.0284
      6  CG       -25.1160   36.3780   -2.8500 C.3    12  LEU12       0.0019
      7  CD1      -24.4110   36.8930   -1.6190 C.3    12  LEU12       0.0001
      8  CD2      -25.8320   37.5110   -3.5570 C.3    12  LEU12       0.0001
      9  N        -22.7200   33.6180   -5.4040 N.am   13  GLY13      -0.1957
     10  CA       -21.5930   33.0850   -6.1470 C.3    13  GLY13       0.1869
     11  C        -21.1760   31.7190   -5.6340 C.2    13  GLY13       0.2309
     12  O        -21.7780   31.1840   -4.7000 O.2    13  GLY13      -0.2863
     13  N        -14.2520   28.0530   -2.6340 N.3    17  PHE17      -0.1241
     14  CA       -14.4810   28.6000   -1.3050 C.3    17  PHE17       0.1605
     15  C        -15.8550   28.1570   -0.8190 C.2    17  PHE17       0.2264
     16  O        -16.1840   28.2990    0.3590 O.2    17  PHE17      -0.2867
     17  CB       -14.3860   30.1330   -1.3040 C.3    17  PHE17       0.0534
     18  CG       -15.3060   30.8130   -2.2800 C.ar   17  PHE17      -0.0203
     19  CD1      -14.9820   30.8840   -3.6330 C.ar   17  PHE17      -0.0042
     20  CD2      -16.4950   31.3960   -1.8430 C.ar   17  PHE17      -0.0042
     21  CE1      -15.8250   31.5250   -4.5390 C.ar   17  PHE17      -0.0003
     22  CE2      -17.3490   32.0400   -2.7390 C.ar   17  PHE17      -0.0003
     23  CZ       -17.0140   32.1050   -4.0900 C.ar   17  PHE17      -0.0000
     24  N        -22.2800   30.5600   -1.8230 N.3    20  VAL20      -0.1245
     25  CA       -22.8050   31.6340   -0.9890 C.3    20  VAL20       0.1561
     26  C        -24.1960   32.0700   -1.4250 C.2    20  VAL20       0.2260
     27  O        -24.4280   32.3580   -2.6010 O.2    20  VAL20      -0.2867
     28  CB       -21.8630   32.8520   -1.0330 C.3    20  VAL20       0.0252
     29  CG1      -22.4090   33.9710   -0.1650 C.3    20  VAL20       0.0019
     30  CG2      -20.4680   32.4410   -0.5840 C.3    20  VAL20       0.0019
     31  N        -25.2800   36.9980    4.3170 N.3    33  ALA33      -0.1245
     32  CA       -24.7500   36.1070    3.3020 C.3    33  ALA33       0.1562
     33  C        -24.5550   34.7840    4.0050 C.2    33  ALA33       0.2260
     34  O        -23.9910   34.7360    5.0940 O.2    33  ALA33      -0.2867
     35  CB       -23.4250   36.6280    2.7710 C.3    33  ALA33       0.0290
     36  N        -22.8740   31.1430    3.7170 N.3    35  LYS35      -0.1245
     37  CA       -21.8660   30.3680    3.0190 C.3    35  LYS35       0.1561
     38  C        -21.8040   28.9210    3.4880 C.2    35  LYS35       0.2260
     39  O        -21.7550   28.6380    4.6870 O.2    35  LYS35      -0.2867
     40  CB       -20.5080   31.0410    3.2060 C.3    35  LYS35       0.0271
     41  CG       -19.3620   30.3800    2.4710 C.3    35  LYS35       0.0035
     42  CD       -18.0900   31.1990    2.6620 C.3    35  LYS35       0.0206
     43  CE       -16.9170   30.6170    1.9000 C.3    35  LYS35       0.1093
     44  NZ       -15.7120   31.4780    2.0400 N.3    35  LYS35      -0.1314
     45  N        -15.4150   41.6430    6.3200 N.3    68  ILE68      -0.1245
     46  CA       -16.7980   41.1940    6.4470 C.3    68  ILE68       0.1561
     47  C        -16.8570   40.3990    7.7460 C.2    68  ILE68       0.2260
     48  O        -16.1430   39.4160    7.9110 O.2    68  ILE68      -0.2867
     49  CB       -17.2190   40.2880    5.2690 C.3    68  ILE68       0.0252
     50  CG1      -17.4150   41.1330    4.0140 C.3    68  ILE68       0.0019
     51  CG2      -18.5120   39.5540    5.5950 C.3    68  ILE68       0.0019
     52  CD1      -18.5330   42.1500    4.1180 C.3    68  ILE68       0.0001
     53  N        -22.5640   35.5610    7.2800 N.3    84  LEU84      -0.1231
     54  CA       -21.7460   36.7560    7.1330 C.3    84  LEU84       0.1693
     55  C        -22.6020   37.9790    6.8950 C.2    84  LEU84       0.2592
     56  O        -23.7530   37.8660    6.4920 O.2    84  LEU84      -0.2718
     57  CB       -20.7900   36.6240    5.9430 C.3    84  LEU84       0.0284
     58  CG       -19.6030   35.6600    5.9230 C.3    84  LEU84       0.0019
     59  CD1      -18.9040   35.6860    7.2700 C.3    84  LEU84       0.0001
     60  CD2      -20.0680   34.2710    5.5810 C.3    84  LEU84       0.0001
     61  N        -22.0260   39.1500    7.1410 N.am   85  GLU85      -0.1966
     62  CA       -22.7170   40.4080    6.8940 C.3    85  GLU85       0.1733
     63  C        -22.8870   40.4920    5.3830 C.2    85  GLU85       0.2616
     64  O        -22.2300   39.7600    4.6370 O.2    85  GLU85      -0.2715
     65  CB       -21.8580   41.6060    7.3120 C.3    85  GLU85       0.0429
     66  CG       -21.5080   41.7130    8.7790 C.3    85  GLU85       0.1163
     67  CD       -20.8000   43.0280    9.0910 C.2    85  GLU85       0.3649
     68  OE1      -19.7290   43.2810    8.4960 O.co2  85  GLU85      -0.2457
     69  OE2      -21.3160   43.8120    9.9260 O.co2  85  GLU85      -0.2457
     70  N        -23.7660   41.3750    4.9290 N.am   86  ARG86      -0.1964
     71  CA       -23.9360   41.5700    3.4960 C.3    86  ARG86       0.1714
     72  C        -24.2980   43.0100    3.1990 C.2    86  ARG86       0.2458
     73  O        -25.4370   43.4250    3.3820 O.2    86  ARG86      -0.2730
     74  CB       -25.0050   40.6500    2.8990 C.3    86  ARG86       0.0347
     75  CG       -25.2120   40.9010    1.3970 C.3    86  ARG86       0.0492
     76  CD       -26.1670   39.9020    0.7590 C.3    86  ARG86       0.2205
     77  NE       -27.4330   39.8170    1.4810 N.pl3  86  ARG86      -0.0865
     78  CZ       -28.6200   40.1340    0.9690 C.cat  86  ARG86       0.5346
     79  NH1      -28.7170   40.5630   -0.2820 N.pl3  86  ARG86       0.1354
     80  NH2      -29.7120   40.0150    1.7120 N.pl3  86  ARG86       0.1354
     81  N        -23.3180   43.8030    2.7590 N.am   87  PRO87      -0.2727
     82  CA       -23.6010   45.2040    2.4450 C.3    87  PRO87       0.1402
     83  C        -24.3540   45.2550    1.1210 C.2    87  PRO87       0.2269
     84  O        -24.2700   44.3260    0.3230 O.2    87  PRO87      -0.2865
     85  CB       -22.2090   45.8290    2.3790 C.3    87  PRO87       0.0296
     86  CG       -21.3410   44.6940    1.9000 C.3    87  PRO87       0.0237
     87  CD       -21.8800   43.4910    2.6320 C.3    87  PRO87       0.0939
     88  N        -23.3600   46.3690   -3.4600 N.3    90  VAL90      -0.1231
     89  CA       -21.9520   46.0140   -3.3880 C.3    90  VAL90       0.1692
     90  C        -21.4600   45.4650   -4.7060 C.2    90  VAL90       0.2592
     91  O        -22.2430   45.0010   -5.5350 O.2    90  VAL90      -0.2718
     92  CB       -21.6700   44.9320   -2.3270 C.3    90  VAL90       0.0266
     93  CG1      -21.9860   45.4560   -0.9560 C.3    90  VAL90       0.0020
     94  CG2      -22.4850   43.6880   -2.6290 C.3    90  VAL90       0.0020
     95  N        -20.1470   45.5230   -4.8820 N.am   91  GLN91      -0.1966
     96  CA       -19.4960   44.9980   -6.0680 C.3    91  GLN91       0.1733
     97  C        -18.0650   44.6950   -5.6580 C.2    91  GLN91       0.2616
     98  O        -17.4510   45.4880   -4.9360 O.2    91  GLN91      -0.2715
     99  CB       -19.5020   46.0220   -7.2010 C.3    91  GLN91       0.0408
    100  CG       -19.1810   45.3970   -8.5440 C.3    91  GLN91       0.0908
    101  CD       -19.1230   46.4070   -9.6700 C.2    91  GLN91       0.2608
    102  OE1      -19.2100   46.0400  -10.8440 O.2    91  GLN91      -0.2717
    103  NE2      -18.9580   47.6840   -9.3230 N.am   91  GLN91      -0.0878
    104  N        -17.5370   43.5510   -6.0910 N.am   92  ASP92      -0.1971
    105  CA       -16.1700   43.2150   -5.7420 C.3    92  ASP92       0.1709
    106  C        -15.2290   43.9810   -6.6710 C.2    92  ASP92       0.2293
    107  O        -15.6150   44.3880   -7.7730 O.2    92  ASP92      -0.2864
    108  CB       -15.9450   41.6920   -5.7810 C.3    92  ASP92       0.1436
    109  CG       -15.9320   41.1090   -7.1850 C.2    92  ASP92       0.3671
    110  OD1      -16.4160   39.9640   -7.3390 O.co2  92  ASP92      -0.2456
    111  OD2      -15.4260   41.7600   -8.1240 O.co2  92  ASP92      -0.2456
    112  N        -14.8700   42.7840  -10.4670 N.3    95  ASP95      -0.1239
    113  CA       -15.9110   43.2410  -11.3850 C.3    95  ASP95       0.1674
    114  C        -15.8420   44.7490  -11.6160 C.2    95  ASP95       0.2266
    115  O        -16.0670   45.2300  -12.7300 O.2    95  ASP95      -0.2867
    116  CB       -17.3020   42.8900  -10.8500 C.3    95  ASP95       0.1410
    117  CG       -17.5470   41.4000  -10.8090 C.2    95  ASP95       0.3668
    118  OD1      -17.0620   40.6950  -11.7260 O.co2  95  ASP95      -0.2456
    119  OD2      -18.2360   40.9380   -9.8690 O.co2  95  ASP95      -0.2456
    120  N        -10.7510   40.0340   -6.3100 N.3   134  GLU134     -0.1231
    121  CA       -11.9220   39.1950   -6.0570 C.3   134  GLU134      0.1699
    122  C        -12.2970   39.0640   -4.5910 C.2   134  GLU134      0.2592
    123  O        -13.4570   38.8240   -4.2740 O.2   134  GLU134     -0.2718
    124  CB       -11.6970   37.7890   -6.6260 C.3   134  GLU134      0.0402
    125  CG       -11.5250   37.7530   -8.1350 C.3   134  GLU134      0.1161
    126  CD       -11.0650   36.3970   -8.6530 C.2   134  GLU134      0.3649
    127  OE1       -9.9030   36.0160   -8.3860 O.co2 134  GLU134     -0.2457
    128  OE2      -11.8720   35.7120   -9.3250 O.co2 134  GLU134     -0.2457
    129  N        -11.3250   39.2130   -3.6960 N.am  135  ASN135     -0.1974
    130  CA       -11.6040   39.0800   -2.2740 C.3   135  ASN135      0.1688
    131  C        -11.8030   40.4060   -1.5690 C.2   135  ASN135      0.2292
    132  O        -11.7250   40.4970   -0.3370 O.2   135  ASN135     -0.2864
    133  CB       -10.5050   38.2570   -1.5940 C.3   135  ASN135      0.1181
    134  CG       -10.5350   36.7950   -2.0260 C.2   135  ASN135      0.2629
    135  OD1      -11.6090   36.2510   -2.2910 O.2   135  ASN135     -0.2716
    136  ND2       -9.3690   36.1520   -2.0870 N.am  135  ASN135     -0.0877
    137  N        -14.5820   43.5330   -1.3430 N.3   137  LEU137     -0.1245
    138  CA       -15.9440   43.9840   -1.6200 C.3   137  LEU137      0.1561
    139  C        -16.0540   45.4730   -1.4460 C.2   137  LEU137      0.2260
    140  O        -15.5080   46.0330   -0.4900 O.2   137  LEU137     -0.2867
    141  CB       -16.9380   43.3330   -0.6650 C.3   137  LEU137      0.0270
    142  CG       -17.7820   42.1940   -1.2100 C.3   137  LEU137      0.0019
    143  CD1      -16.8990   41.1560   -1.8700 C.3   137  LEU137      0.0001
    144  CD2      -18.5880   41.5990   -0.0630 C.3   137  LEU137      0.0001
    145  N        -12.8260   39.6560    2.1610 N.3   148  ILE148     -0.1245
    146  CA       -13.6170   38.4400    2.2440 C.3   148  ILE148      0.1561
    147  C        -12.8020   37.1890    1.9500 C.2   148  ILE148      0.2260
    148  O        -11.6960   37.2600    1.3980 O.2   148  ILE148     -0.2867
    149  CB       -14.8140   38.4520    1.2690 C.3   148  ILE148      0.0252
    150  CG1      -14.3030   38.5150   -0.1690 C.3   148  ILE148      0.0019
    151  CG2      -15.7400   39.6240    1.5860 C.3   148  ILE148      0.0019
    152  CD1      -15.3850   38.2840   -1.1970 C.3   148  ILE148      0.0001
@<TRIPOS>BOND
     1   115   114    2
     2   118   117   ar
     3   114   113    1
     4   113   116    1
     5   113   112    1
     6   116   117    1
     7   102   101    2
     8   117   119   ar
     9   101   103   am
    10   101   100    1
    11   128   126   ar
    12   126   127   ar
    13   126   125    1
    14   100    99    1
    15   125   124    1
    16   111   109   ar
    17   107   106    2
    18   110   109   ar
    19    99    96    1
    20   109   108    1
    21     4     3    2
    22   106   105    1
    23   124   121    1
    24   120   121    1
    25    10    11    1
    26    10     9    1
    27   104   105    1
    28   104    97   am
    29    96    97    1
    30    96    95    1
    31   121   122    1
    32     3     9   am
    33     3     2    1
    34   108   105    1
    35    97    98    2
    36    11    12    2
    37    91    90    2
    38     2     1    1
    39     2     5    1
    40    95    90   am
    41    90    89    1
    42   122   123    2
    43   122   129   am
    44    21    23   ar
    45    21    19   ar
    46    23    22   ar
    47     5     6    1
    48   129   130    1
    49    19    18   ar
    50     8     6    1
    51    88    89    1
    52    89    92    1
    53     6     7    1
    54    22    20   ar
    55    13    14    1
    56    94    92    1
    57    27    26    2
    58    92    93    1
    59   135   134    2
    60    18    20   ar
    61    18    17    1
    62   130   133    1
    63   130   131    1
    64   136   134   am
    65   134   133    1
    66   143   142    1
    67    24    25    1
    68   138   139    1
    69   138   137    1
    70   138   141    1
    71   131   132    2
    72   139   140    2
    73    26    25    1
    74    14    17    1
    75    14    15    1
    76   142   141    1
    77   142   144    1
    78   152   150    1
    79    28    25    1
    80    28    30    1
    81    28    29    1
    82    15    16    2
    83    79    78    1
    84   150   149    1
    85    84    83    2
    86    76    75    1
    87    76    77    1
    88    78    77    2
    89    78    80    1
    90    83    82    1
    91   149   151    1
    92   149   146    1
    93    75    74    1
    94   148   147    2
    95    86    85    1
    96    86    87    1
    97    43    44    1
    98    43    42    1
    99   147   146    1
   100   145   146    1
   101    85    82    1
   102    82    81    1
   103    41    42    1
   104    41    40    1
   105    87    81    1
   106    81    72   am
   107    35    32    1
   108    74    71    1
   109    37    40    1
   110    37    38    1
   111    37    36    1
   112    72    73    2
   113    72    71    1
   114    32    33    1
   115    32    31    1
   116    38    39    2
   117    71    70    1
   118    33    34    2
   119    50    52    1
   120    50    49    1
   121    64    63    2
   122    70    63   am
   123    49    51    1
   124    49    46    1
   125    63    62    1
   126    60    58    1
   127    58    57    1
   128    58    59    1
   129    57    54    1
   130    45    46    1
   131    46    47    1
   132    56    55    2
   133    62    61    1
   134    62    65    1
   135    55    54    1
   136    55    61   am
   137    54    53    1
   138    65    66    1
   139    47    48    2
   140    68    67   ar
   141    66    67    1
   142    67    69   ar
