@<TRIPOS>MOLECULE
tmp/1yi8C00.pdb
 137 128 0 0 0
SMALL
GASTEIGER

@<TRIPOS>ATOM
      1  N         42.8660    6.0350   26.9040 N.3     6  LEU6       -0.1231
      2  CA        44.2360    6.5040   26.7670 C.3     6  LEU6        0.1693
      3  C         44.2290    7.8810   26.0830 C.2     6  LEU6        0.2593
      4  O         43.4990    8.1090   25.0910 O.2     6  LEU6       -0.2718
      5  CB        45.0820    5.5260   25.9390 C.3     6  LEU6        0.0284
      6  CG        46.5530    5.9570   25.8320 C.3     6  LEU6        0.0019
      7  CD1       47.1660    5.9270   27.2380 C.3     6  LEU6        0.0001
      8  CD2       47.3590    5.0500   24.9080 C.3     6  LEU6        0.0001
      9  N         45.0300    8.7880   26.6300 N.am    7  THR7       -0.1939
     10  CA        45.1740   10.1420   26.1060 C.3     7  THR7        0.2031
     11  C         46.6210   10.5740   26.3330 C.2     7  THR7        0.2682
     12  O         47.3980    9.8490   26.9720 O.2     7  THR7       -0.2710
     13  CB        44.2740   11.1550   26.8610 C.3     7  THR7        0.1808
     14  OG1       44.7280   11.2870   28.2210 O.3     7  THR7       -0.2208
     15  CG2       42.8280   10.6790   26.8680 C.3     7  THR7        0.0379
     16  N         46.9840   11.7530   25.8330 N.am    8  GLY8       -0.1715
     17  CA        48.3430   12.2070   26.0410 C.2     8  GLY8        0.1480
     18  C         48.7790   13.4850   25.3630 C.2     8  GLY8        0.2820
     19  O         48.0370   14.0750   24.5800 O.2     8  GLY8       -0.2669
     20  N         50.0060   13.9040   25.6810 N.am    9  ASP9       -0.1923
     21  CA        50.6000   15.1090   25.1110 C.3     9  ASP9        0.1843
     22  C         52.1000   14.9310   24.9370 C.2     9  ASP9        0.2622
     23  O         52.7850   14.4530   25.8390 O.2     9  ASP9       -0.2715
     24  CB        50.3820   16.3190   26.0290 C.3     9  ASP9        0.1450
     25  CG        48.9220   16.6130   26.2750 C.2     9  ASP9        0.3671
     26  OD1       48.2330   17.0940   25.3450 O.co2   9  ASP9       -0.2456
     27  OD2       48.4640   16.3580   27.4030 O.co2   9  ASP9       -0.2456
     28  N         52.6230   15.2970   23.7760 N.am   10  ARG10      -0.1977
     29  CA        54.0650   15.2370   23.6150 C.3    10  ARG10       0.1597
     30  C         54.5210   16.4890   24.3670 C.2    10  ARG10       0.2287
     31  O         54.0450   17.5990   24.1080 O.2    10  ARG10      -0.2864
     32  CB        54.4760   15.2740   22.1430 C.3    10  ARG10       0.0334
     33  CG        53.5390   16.0180   21.2230 C.3    10  ARG10       0.0492
     34  CD        53.3570   15.2510   19.9180 C.3    10  ARG10       0.2205
     35  NE        54.6140   14.9200   19.2600 N.pl3  10  ARG10      -0.0865
     36  CZ        55.4180   15.8020   18.6660 C.cat  10  ARG10       0.5346
     37  NH1       56.5430   15.3880   18.0890 N.pl3  10  ARG10       0.1354
     38  NH2       55.1000   17.0900   18.6310 N.pl3  10  ARG10       0.1354
     39  N         49.5780    9.7920   28.6860 N.3    39  LEU39      -0.1245
     40  CA        50.9430    9.5360   28.3080 C.3    39  LEU39       0.1561
     41  C         51.6970   10.8290   28.0690 C.2    39  LEU39       0.2260
     42  O         51.2610   11.6850   27.2870 O.2    39  LEU39      -0.2867
     43  CB        50.9990    8.7110   27.0180 C.3    39  LEU39       0.0270
     44  CG        52.4020    8.3580   26.5170 C.3    39  LEU39       0.0019
     45  CD1       52.9950    7.3250   27.4260 C.3    39  LEU39       0.0001
     46  CD2       52.3440    7.8010   25.0820 C.3    39  LEU39       0.0001
     47  N         54.2920   11.6850   26.2200 N.3    41  ALA41      -0.1245
     48  CA        55.0480   11.1120   25.1020 C.3    41  ALA41       0.1562
     49  C         56.3560   11.7850   24.7020 C.2    41  ALA41       0.2260
     50  O         56.4930   12.3690   23.6090 O.2    41  ALA41      -0.2867
     51  CB        54.1370   11.0270   23.8750 C.3    41  ALA41       0.0290
     52  N         57.8590   10.2920   21.4000 N.3    44  GLN44      -0.1245
     53  CA        57.2090   10.8350   20.2100 C.3    44  GLN44       0.1566
     54  C         57.6440   12.2950   20.0390 C.2    44  GLN44       0.2260
     55  O         57.9120   12.7280   18.9270 O.2    44  GLN44      -0.2867
     56  CB        55.6890   10.7620   20.3430 C.3    44  GLN44       0.0367
     57  CG        54.9680   11.2270   19.0880 C.3    44  GLN44       0.0905
     58  CD        53.4670   11.0350   19.1330 C.2    44  GLN44       0.2608
     59  OE1       52.9630    9.9030   19.1470 O.2    44  GLN44      -0.2717
     60  NE2       52.7400   12.1440   19.1670 N.am   44  GLN44      -0.0878
     61  N         51.2230   17.8660    8.5490 N.3   113  GLU113     -0.1245
     62  CA        52.2350   18.3320    9.4890 C.3   113  GLU113      0.1567
     63  C         53.5570   18.5420    8.7670 C.2   113  GLU113      0.2260
     64  O         54.2320   19.5330    8.9700 O.2   113  GLU113     -0.2867
     65  CB        52.4110   17.3230   10.6240 C.3   113  GLU113      0.0388
     66  CG        51.1970   17.2070   11.5170 C.3   113  GLU113      0.1160
     67  CD        51.3320   16.1070   12.5550 C.2   113  GLU113      0.3649
     68  OE1       51.1720   14.9130   12.2130 O.co2 113  GLU113     -0.2457
     69  OE2       51.6170   16.4390   13.7200 O.co2 113  GLU113     -0.2457
     70  N         55.5720    7.8440   13.0710 N.3   130  TYR130     -0.1241
     71  CA        55.0570    8.0120   14.4200 C.3   130  TYR130      0.1605
     72  C         53.6400    7.5110   14.6420 C.2   130  TYR130      0.2264
     73  O         53.2940    7.1110   15.7520 O.2   130  TYR130     -0.2867
     74  CB        55.2410    9.4600   14.9170 C.3   130  TYR130      0.0534
     75  CG        54.0620   10.3820   14.7430 C.ar  130  TYR130     -0.0201
     76  CD1       54.0820   11.3890   13.7850 C.ar  130  TYR130     -0.0009
     77  CD2       52.9410   10.2690   15.5530 C.ar  130  TYR130     -0.0009
     78  CE1       53.0280   12.2620   13.6390 C.ar  130  TYR130      0.0417
     79  CE2       51.8610   11.1410   15.4140 C.ar  130  TYR130      0.0417
     80  CZ        51.9210   12.1390   14.4450 C.ar  130  TYR130      0.1957
     81  OH        50.8750   13.0160   14.2730 O.3   130  TYR130     -0.2866
     82  N         52.3110    5.3730   18.0790 N.3   134  GLN134     -0.1245
     83  CA        51.1200    5.7090   18.8530 C.3   134  GLN134      0.1566
     84  C         50.2090    4.4760   18.9000 C.2   134  GLN134      0.2260
     85  O         49.5740    4.2200   19.9140 O.2   134  GLN134     -0.2867
     86  CB        50.3660    6.8670   18.2200 C.3   134  GLN134      0.0367
     87  CG        50.7440    8.2080   18.7800 C.3   134  GLN134      0.0905
     88  CD        49.8010    9.2910   18.3330 C.2   134  GLN134      0.2608
     89  OE1       49.9410    9.8580   17.2500 O.2   134  GLN134     -0.2717
     90  NE2       48.8110    9.5650   19.1470 N.am  134  GLN134     -0.0878
     91  N         51.3910    2.5140   21.5150 N.3   137  ASP137     -0.1225
     92  CA        50.9620    3.0590   22.8000 C.3   137  ASP137      0.1805
     93  C         49.5740    2.5530   23.1920 C.2   137  ASP137      0.2597
     94  O         49.3580    2.0390   24.2990 O.2   137  ASP137     -0.2718
     95  CB        50.8990    4.5920   22.7730 C.3   137  ASP137      0.1424
     96  CG        52.2440    5.2370   22.5240 C.2   137  ASP137      0.3668
     97  OD1       53.2620    4.7150   23.0370 O.co2 137  ASP137     -0.2456
     98  OD2       52.2730    6.2860   21.8360 O.co2 137  ASP137     -0.2456
     99  N         48.6230    2.7370   22.2840 N.am  138  ILE138     -0.1980
    100  CA        47.2350    2.3300   22.5190 C.3   138  ILE138      0.1595
    101  C         47.1200    0.8350   22.8670 C.2   138  ILE138      0.2287
    102  O         46.5730    0.4790   23.9100 O.2   138  ILE138     -0.2864
    103  CB        46.3610    2.5610   21.2540 C.3   138  ILE138      0.0276
    104  CG1       46.5430    4.0010   20.7370 C.3   138  ILE138      0.0022
    105  CG2       44.9140    2.2630   21.5510 C.3   138  ILE138      0.0022
    106  CD1       46.0930    5.0310   21.6960 C.3   138  ILE138      0.0001
    107  N         39.7190    5.9820   23.0630 N.3   146  VAL146     -0.1231
    108  CA        40.7090    7.0210   22.8200 C.3   146  VAL146      0.1678
    109  C         40.0670    8.3420   22.3930 C.2   146  VAL146      0.2434
    110  O         39.5040    8.4440   21.2990 O.2   146  VAL146     -0.2733
    111  CB        41.7140    6.5940   21.7000 C.3   146  VAL146      0.0265
    112  CG1       42.3870    5.2480   22.0720 C.3   146  VAL146      0.0020
    113  CG2       40.9760    6.4280   20.3710 C.3   146  VAL146      0.0020
    114  N         40.1140    9.3730   23.2590 N.am  147  PRO147     -0.2729
    115  CA        39.5230   10.6610   22.9020 C.3   147  PRO147      0.1401
    116  C         40.1700   11.1700   21.6140 C.2   147  PRO147      0.2269
    117  O         41.3990   11.1740   21.4860 O.2   147  PRO147     -0.2865
    118  CB        39.8700   11.5430   24.0930 C.3   147  PRO147      0.0296
    119  CG        39.8030   10.5620   25.2360 C.3   147  PRO147      0.0237
    120  CD        40.5320    9.3590   24.6730 C.3   147  PRO147      0.0939
    121  N         42.8310   13.5170   14.5110 N.3   152  GLN152     -0.1245
    122  CA        43.5850   12.3710   14.9860 C.3   152  GLN152      0.1566
    123  C         42.9430   11.0430   14.5890 C.2   152  GLN152      0.2260
    124  O         43.5000    9.9720   14.8590 O.2   152  GLN152     -0.2867
    125  CB        43.7400   12.4310   16.5050 C.3   152  GLN152      0.0367
    126  CG        44.3750   13.7080   17.0170 C.3   152  GLN152      0.0905
    127  CD        43.4160   14.8810   17.0980 C.2   152  GLN152      0.2608
    128  OE1       42.5220   14.9070   17.9450 O.2   152  GLN152     -0.2717
    129  NE2       43.5830   15.8410   16.1870 N.am  152  GLN152     -0.0878
    130  N         44.9090    8.6720   12.8510 N.3   155  MET155     -0.1245
    131  CA        45.8900    8.0360   13.7170 C.3   155  MET155      0.1570
    132  C         45.1740    6.8340   14.3350 C.2   155  MET155      0.2261
    133  O         45.6860    5.7290   14.3670 O.2   155  MET155     -0.2867
    134  CB        46.3590    8.9890   14.8240 C.3   155  MET155      0.0387
    135  CG        47.3830    8.3400   15.7300 C.3   155  MET155      0.0595
    136  SD        46.6280    7.0050   16.7080 S.3   155  MET155     -0.1393
    137  CE        45.6320    8.0090   17.7930 C.3   155  MET155      0.0692
@<TRIPOS>BOND
     1    61    62    1
     2    63    64    2
     3    63    62    1
     4    62    65    1
     5    65    66    1
     6    66    67    1
     7    68    67   ar
     8    67    69   ar
     9   130   131    1
    10    70    71    1
    11    78    76   ar
    12    78    80   ar
    13   131   132    1
    14   131   134    1
    15    76    75   ar
    16    81    80    1
    17   132   133    2
    18    71    72    1
    19    71    74    1
    20    80    79   ar
    21   121   122    1
    22   123   124    2
    23   123   122    1
    24    72    73    2
    25    75    74    1
    26    75    77   ar
    27   134   135    1
    28   122   125    1
    29    79    77   ar
    30   135   136    1
    31   129   127   am
    32   125   126    1
    33   136   137    1
    34   126   127    1
    35   127   128    2
    36    89    88    2
    37    82    83    1
    38    37    36    1
    39    86    87    1
    40    86    83    1
    41    88    87    1
    42    88    90   am
    43    38    36    1
    44    36    35    2
    45    83    84    1
    46    84    85    2
    47    55    54    2
    48    57    58    1
    49    57    56    1
    50    58    59    2
    51    58    60   am
    52    35    34    1
    53    34    33    1
    54    54    53    1
    55    53    56    1
    56    53    52    1
    57   113   111    1
    58   104   103    1
    59   104   106    1
    60    33    32    1
    61   103   105    1
    62   103   100    1
    63   110   109    2
    64   117   116    2
    65    91    92    1
    66   116   115    1
    67   111   112    1
    68   111   108    1
    69    98    96   ar
    70    32    29    1
    71    99   100    1
    72    99    93   am
    73   109   108    1
    74   109   114   am
    75   100   101    1
    76    96    95    1
    77    96    97   ar
    78    95    92    1
    79    92    93    1
    80   108   107    1
    81   101   102    2
    82   115   114    1
    83   115   118    1
    84    93    94    2
    85   114   120    1
    86    50    49    2
    87    29    28    1
    88    29    30    1
    89    28    22   am
    90    51    48    1
    91   118   119    1
    92    31    30    2
    93    19    18    2
    94   120   119    1
    95    49    48    1
    96     8     6    1
    97    22    21    1
    98    22    23    2
    99    46    44    1
   100     4     3    2
   101    48    47    1
   102    21    20    1
   103    21    24    1
   104    26    25   ar
   105    18    20   am
   106    18    17    1
   107     6     5    1
   108     6     7    1
   109    16    17    2
   110    16    11    1
   111     5     2    1
   112    24    25    1
   113     3     9   am
   114     3     2    1
   115    10    11    1
   116    10     9    1
   117    10    13    1
   118    25    27   ar
   119    11    12    2
   120    44    43    1
   121    44    45    1
   122     2     1    1
   123    13    15    1
   124    13    14    1
   125    43    40    1
   126    42    41    2
   127    41    40    1
   128    40    39    1
