@<TRIPOS>MOLECULE
tmp/1yidA00.pdb
 177 168 0 0 0
SMALL
GASTEIGER

@<TRIPOS>ATOM
      1  N         76.3690  -11.7330   11.6930 N.3     8  GLY8       -0.1210
      2  CA        75.0690  -12.3350   11.9000 C.3     8  GLY8        0.1956
      3  C         74.3670  -12.8250   10.6520 C.2     8  GLY8        0.2612
      4  O         74.8400  -12.6350    9.5380 O.2     8  GLY8       -0.2717
      5  N         73.2280  -13.4740   10.8580 N.am    9  ASP9       -0.1959
      6  CA        72.4250  -13.9990    9.7690 C.3     9  ASP9        0.1840
      7  C         70.9470  -13.9200   10.1400 C.2     9  ASP9        0.2621
      8  O         70.5680  -13.9620   11.3130 O.2     9  ASP9       -0.2715
      9  CB        72.7750  -15.4780    9.4600 C.3     9  ASP9        0.1450
     10  CG        74.2470  -15.6930    9.1140 C.2     9  ASP9        0.3671
     11  OD1       75.0210  -16.1230    9.9970 O.co2   9  ASP9       -0.2456
     12  OD2       74.6370  -15.4310    7.9620 O.co2   9  ASP9       -0.2456
     13  N         70.1210  -13.8050    9.1100 N.am   10  ARG10      -0.1977
     14  CA        68.6770  -13.7580    9.2530 C.3    10  ARG10       0.1597
     15  C         68.2190  -15.2160    9.3020 C.2    10  ARG10       0.2287
     16  O         68.2840  -15.9130    8.2920 O.2    10  ARG10      -0.2864
     17  CB        68.0650  -13.0710    8.0290 C.3    10  ARG10       0.0334
     18  CG        67.4940  -11.6800    8.2740 C.3    10  ARG10       0.0492
     19  CD        67.4170  -10.8730    6.9680 C.3    10  ARG10       0.2205
     20  NE        66.8740  -11.6660    5.8660 N.pl3  10  ARG10      -0.0865
     21  CZ        65.5780  -11.8190    5.6080 C.cat  10  ARG10       0.5346
     22  NH1       65.1890  -12.5790    4.5870 N.pl3  10  ARG10       0.1354
     23  NH2       64.6730  -11.1930    6.3500 N.pl3  10  ARG10       0.1354
     24  N         66.3250  -17.9080    8.5750 N.3    12  THR12      -0.1218
     25  CA        65.2580  -18.2510    7.6530 C.3    12  THR12       0.1862
     26  C         65.4390  -19.6600    7.1040 C.2    12  THR12       0.2287
     27  O         64.6560  -20.1130    6.2770 O.2    12  THR12      -0.2866
     28  CB        65.2150  -17.2730    6.4780 C.3    12  THR12       0.1770
     29  OG1       66.5360  -17.0960    5.9560 O.3    12  THR12      -0.2211
     30  CG2       64.6670  -15.9420    6.9260 C.3    12  THR12       0.0375
     31  N         74.2990  -22.4910    4.0300 N.3    16  HIS16      -0.1241
     32  CA        74.8550  -23.2330    2.9090 C.3    16  HIS16       0.1621
     33  C         76.3170  -22.9040    2.6600 C.2    16  HIS16       0.2264
     34  O         76.9920  -22.3310    3.5120 O.2    16  HIS16      -0.2867
     35  CB        74.0540  -22.9360    1.6610 C.3    16  HIS16       0.0745
     36  CG        73.9040  -21.4760    1.3820 C.ar   16  HIS16       0.0817
     37  ND1       72.7870  -20.7600    1.7450 N.ar   16  HIS16      -0.2268
     38  CD2       74.7320  -20.5970    0.7680 C.ar   16  HIS16       0.1154
     39  CE1       72.9270  -19.5030    1.3620 C.ar   16  HIS16       0.1986
     40  NE2       74.1000  -19.3800    0.7670 N.ar   16  HIS16      -0.2212
     41  N         77.6000  -20.7360    0.5820 N.3    18  GLY18      -0.1210
     42  CA        77.8660  -19.3520    0.2960 C.3    18  GLY18       0.1956
     43  C         78.0460  -18.6300    1.5130 C.2    18  GLY18       0.2611
     44  O         78.9070  -17.7560    1.7970 O.2    18  GLY18      -0.2717
     45  N         77.1780  -18.8940    2.4450 N.am   19  HIS19      -0.1975
     46  CA        77.6360  -18.4550    3.6770 C.3    19  HIS19       0.1656
     47  C         79.0740  -18.8280    4.0430 C.2    19  HIS19       0.2291
     48  O         79.9200  -17.9380    3.9240 O.2    19  HIS19      -0.2864
     49  CB        76.8210  -19.0080    4.7600 C.3    19  HIS19       0.0771
     50  CG        75.3820  -18.8050    4.7720 C.ar   19  HIS19       0.0820
     51  ND1       74.7980  -17.5680    4.7480 N.ar   19  HIS19      -0.2267
     52  CD2       74.3880  -19.7110    4.7510 C.ar   19  HIS19       0.1154
     53  CE1       73.4850  -17.7130    4.7070 C.ar   19  HIS19       0.1986
     54  NE2       73.2130  -19.0050    4.7100 N.ar   19  HIS19      -0.2212
     55  N         81.5030  -17.1860    2.5110 N.3    22  GLY22      -0.1210
     56  CA        81.0100  -15.8280    2.6700 C.3    22  GLY22       0.1956
     57  C         81.4270  -15.2060    3.9790 C.2    22  GLY22       0.2612
     58  O         81.6000  -13.9970    4.0500 O.2    22  GLY22      -0.2717
     59  N         81.5610  -16.0170    5.0200 N.am   23  SER23      -0.1952
     60  CA        81.9680  -15.4840    6.2990 C.3    23  SER23       0.1924
     61  C         82.2910  -16.5600    7.3110 C.2    23  SER23       0.2314
     62  O         83.3550  -16.5240    7.9050 O.2    23  SER23      -0.2863
     63  CB        80.8900  -14.5600    6.8550 C.3    23  SER23       0.2116
     64  OG        79.7040  -15.2800    7.1010 O.3    23  SER23      -0.2180
     65  N         84.9080  -15.9240   10.3290 N.3    27  ARG27      -0.1245
     66  CA        84.7340  -15.6940   11.7490 C.3    27  ARG27       0.1563
     67  C         85.3730  -16.8310   12.5380 C.2    27  ARG27       0.2260
     68  O         85.7600  -16.6410   13.6890 O.2    27  ARG27      -0.2867
     69  CB        83.2550  -15.5830   12.1230 C.3    27  ARG27       0.0307
     70  CG        82.3510  -14.8980   11.1090 C.3    27  ARG27       0.0489
     71  CD        81.5970  -15.9720   10.3600 C.3    27  ARG27       0.2205
     72  NE        80.2560  -15.5970    9.9040 N.pl3  27  ARG27      -0.0865
     73  CZ        79.2690  -15.1940   10.6990 C.cat  27  ARG27       0.5346
     74  NH1       79.4660  -15.0900   12.0020 N.pl3  27  ARG27       0.1354
     75  NH2       78.0660  -14.9450   10.2000 N.pl3  27  ARG27       0.1354
     76  N         60.4830   -9.5990    6.9170 N.3    48  ASP48      -0.1225
     77  CA        60.3650  -10.3500    5.6750 C.3    48  ASP48       0.1805
     78  C         59.4900  -11.5860    5.8490 C.2    48  ASP48       0.2597
     79  O         58.8320  -12.0520    4.9200 O.2    48  ASP48      -0.2718
     80  CB        61.7600  -10.7850    5.2600 C.3    48  ASP48       0.1424
     81  CG        62.0490  -10.4620    3.8500 C.2    48  ASP48       0.3668
     82  OD1       61.4210   -9.5050    3.3570 O.co2  48  ASP48      -0.2456
     83  OD2       62.9000  -11.1450    3.2440 O.co2  48  ASP48      -0.2456
     84  N         59.5080  -12.1240    7.0590 N.am   49  HIS49      -0.1975
     85  CA        58.7350  -13.3130    7.3670 C.3    49  HIS49       0.1656
     86  C         57.7810  -13.0340    8.5240 C.2    49  HIS49       0.2291
     87  O         57.5520  -13.9040    9.3720 O.2    49  HIS49      -0.2864
     88  CB        59.6800  -14.4760    7.7050 C.3    49  HIS49       0.0771
     89  CG        60.6710  -14.7680    6.6200 C.ar   49  HIS49       0.0820
     90  ND1       60.9040  -16.0420    6.1450 N.ar   49  HIS49      -0.2267
     91  CD2       61.4690  -13.9480    5.8970 C.ar   49  HIS49       0.1154
     92  CE1       61.7990  -15.9920    5.1740 C.ar   49  HIS49       0.1986
     93  NE2       62.1580  -14.7330    5.0050 N.ar   49  HIS49      -0.2212
     94  N         66.7300   -5.2140   -3.2580 N.3   113  GLU113     -0.1245
     95  CA        65.9300   -6.2260   -2.5840 C.3   113  GLU113      0.1567
     96  C         64.4380   -5.9200   -2.7490 C.2   113  GLU113      0.2260
     97  O         63.6330   -6.8210   -2.9840 O.2   113  GLU113     -0.2867
     98  CB        66.3100   -6.2880   -1.1040 C.3   113  GLU113      0.0388
     99  CG        67.5600   -7.1160   -0.8060 C.3   113  GLU113      0.1160
    100  CD        68.0170   -6.9920    0.6400 C.2   113  GLU113      0.3649
    101  OE1       68.7800   -7.8680    1.1060 O.co2 113  GLU113     -0.2457
    102  OE2       67.6190   -6.0090    1.3080 O.co2 113  GLU113     -0.2457
    103  N         61.5060   -8.3060   -4.6230 N.3   117  LYS117     -0.1245
    104  CA        60.3310   -8.8220   -3.9100 C.3   117  LYS117      0.1561
    105  C         59.0060   -8.3030   -4.4810 C.2   117  LYS117      0.2260
    106  O         57.9200   -8.6870   -4.0440 O.2   117  LYS117     -0.2867
    107  CB        60.4430   -8.4750   -2.4190 C.3   117  LYS117      0.0271
    108  CG        61.5730   -9.2170   -1.7000 C.3   117  LYS117      0.0035
    109  CD        61.8970   -8.5830   -0.3510 C.3   117  LYS117      0.0206
    110  CE        61.7760   -9.6020    0.7570 C.3   117  LYS117      0.1093
    111  NZ        62.5450  -10.8410    0.4480 N.3   117  LYS117     -0.1314
    112  N         77.0110   -5.1200    1.3570 N.3   152  GLN152     -0.1245
    113  CA        76.5340   -4.5050    2.5860 C.3   152  GLN152      0.1566
    114  C         77.2980   -3.2460    2.9990 C.2   152  GLN152      0.2260
    115  O         77.2470   -2.8300    4.1520 O.2   152  GLN152     -0.2867
    116  CB        76.5760   -5.5270    3.7250 C.3   152  GLN152      0.0367
    117  CG        75.8930   -6.8380    3.4150 C.3   152  GLN152      0.0905
    118  CD        75.8470   -7.7530    4.6180 C.2   152  GLN152      0.2608
    119  OE1       76.8530   -7.9450    5.3040 O.2   152  GLN152     -0.2717
    120  NE2       74.6810   -8.3300    4.8820 N.am  152  GLN152     -0.0878
    121  N         80.4770  -12.4550   -3.4420 N.3   186  ARG186     -0.1231
    122  CA        79.3380  -13.3230   -3.1930 C.3   186  ARG186      0.1694
    123  C         79.3560  -14.5740   -4.1250 C.2   186  ARG186      0.2591
    124  O         79.2990  -14.4970   -5.3720 O.2   186  ARG186     -0.2718
    125  CB        78.0130  -12.4960   -3.3510 C.3   186  ARG186      0.0321
    126  CG        76.9460  -12.8170   -2.2820 C.3   186  ARG186      0.0489
    127  CD        76.1460  -11.6200   -1.7490 C.3   186  ARG186      0.2205
    128  NE        74.7390  -11.6650   -2.1490 N.pl3 186  ARG186     -0.0865
    129  CZ        73.7890  -10.8530   -1.6840 C.cat 186  ARG186      0.5346
    130  NH1       72.5400  -10.9790   -2.1240 N.pl3 186  ARG186      0.1354
    131  NH2       74.0720   -9.9230   -0.7770 N.pl3 186  ARG186      0.1354
    132  N         79.5940  -15.7010   -3.4700 N.am  187  LEU187     -0.1980
    133  CA        79.6750  -17.0240   -4.0970 C.3   187  LEU187      0.1596
    134  C         78.3790  -17.1620   -4.8600 C.2   187  LEU187      0.2287
    135  O         77.3090  -16.8880   -4.3240 O.2   187  LEU187     -0.2864
    136  CB        79.7830  -18.1380   -3.0430 C.3   187  LEU187      0.0297
    137  CG        79.7320  -19.5980   -3.5160 C.3   187  LEU187      0.0022
    138  CD1       81.0390  -19.9650   -4.1940 C.3   187  LEU187      0.0001
    139  CD2       79.4950  -20.5300   -2.3470 C.3   187  LEU187      0.0001
    140  N         73.5910  -14.9060   -6.6980 N.3   195  LYS195     -0.1231
    141  CA        73.3750  -15.2760   -5.3210 C.3   195  LYS195      0.1693
    142  C         72.8860  -16.7140   -5.0810 C.2   195  LYS195      0.2592
    143  O         72.1340  -17.2980   -5.8660 O.2   195  LYS195     -0.2718
    144  CB        72.3880  -14.2770   -4.6220 C.3   195  LYS195      0.0285
    145  CG        70.9640  -14.1430   -5.1470 C.3   195  LYS195      0.0035
    146  CD        70.8760  -13.0520   -6.1950 C.3   195  LYS195      0.0206
    147  CE        69.5500  -13.0590   -6.9450 C.3   195  LYS195      0.1093
    148  NZ        68.4260  -12.5470   -6.1080 N.3   195  LYS195     -0.1314
    149  N         73.4460  -17.3180   -4.0460 N.am  196  MET196     -0.1965
    150  CA        73.0820  -18.6730   -3.6600 C.3   196  MET196      0.1736
    151  C         72.1530  -18.4510   -2.4890 C.2   196  MET196      0.2617
    152  O         72.4460  -17.6340   -1.6210 O.2   196  MET196     -0.2715
    153  CB        74.3080  -19.4650   -3.2130 C.3   196  MET196      0.0427
    154  CG        73.9580  -20.8360   -2.6710 C.3   196  MET196      0.0599
    155  SD        75.4300  -21.7330   -2.2290 S.3   196  MET196     -0.1393
    156  CE        75.8260  -22.4270   -3.8250 C.3   196  MET196      0.0692
    157  N         71.0290  -19.1570   -2.4610 N.am  197  SER197     -0.1936
    158  CA        70.0510  -18.9860   -1.3900 C.3   197  SER197      0.2055
    159  C         69.0560  -20.1320   -1.4360 C.2   197  SER197      0.2643
    160  O         68.8110  -20.6830   -2.4990 O.2   197  SER197     -0.2714
    161  CB        69.3170  -17.6580   -1.5820 C.3   197  SER197      0.2130
    162  OG        68.2410  -17.5110   -0.6720 O.3   197  SER197     -0.2179
    163  N         68.4770  -20.4980   -0.2980 N.am  198  LYS198     -0.1963
    164  CA        67.5200  -21.5950   -0.3130 C.3   198  LYS198      0.1728
    165  C         66.2800  -21.1720   -1.0810 C.2   198  LYS198      0.2616
    166  O         65.5700  -22.0010   -1.6510 O.2   198  LYS198     -0.2715
    167  CB        67.1380  -22.0250    1.1060 C.3   198  LYS198      0.0311
    168  CG        66.2710  -23.2800    1.1230 C.3   198  LYS198      0.0038
    169  CD        66.3290  -23.9970    2.4590 C.3   198  LYS198      0.0206
    170  CE        67.6770  -24.6770    2.6700 C.3   198  LYS198      0.1093
    171  NZ        67.7440  -25.3540    3.9950 N.3   198  LYS198     -0.1314
    172  N         66.0440  -19.8640   -1.0980 N.am  199  SER199     -0.1950
    173  CA        64.9080  -19.2650   -1.7940 C.3   199  SER199      0.1924
    174  C         65.0150  -19.4680   -3.2970 C.2   199  SER199      0.2314
    175  O         64.0270  -19.7330   -3.9760 O.2   199  SER199     -0.2863
    176  CB        64.8680  -17.7730   -1.4960 C.3   199  SER199      0.2116
    177  OG        64.9000  -17.5580   -0.1020 O.3   199  SER199     -0.2180
@<TRIPOS>BOND
     1   147   146    1
     2   147   148    1
     3   140   141    1
     4   146   145    1
     5   143   142    2
     6   124   123    2
     7   141   142    1
     8   141   144    1
     9   145   144    1
    10   142   149   am
    11   134   135    2
    12   134   133    1
    13   103   104    1
    14   105   106    2
    15   105   104    1
    16   138   137    1
    17   123   132   am
    18   123   122    1
    19   133   132    1
    20   133   136    1
    21   149   150    1
    22   175   174    2
    23   104   107    1
    24   156   155    1
    25   150   153    1
    26   150   151    1
    27   137   136    1
    28   137   139    1
    29   121   122    1
    30   125   122    1
    31   125   126    1
    32   174   173    1
    33    94    95    1
    34   153   154    1
    35    97    96    2
    36    96    95    1
    37   154   155    1
    38    95    98    1
    39   160   159    2
    40   151   157   am
    41   151   152    2
    42   157   158    1
    43   107   108    1
    44   126   127    1
    45   128   127    1
    46   128   129    2
    47   130   129    1
    48   173   176    1
    49   173   172    1
    50   108   109    1
    51   129   131    1
    52   166   165    2
    53   161   158    1
    54   161   162    1
    55   176   177    1
    56   159   158    1
    57   159   163   am
    58    98    99    1
    59   172   165   am
    60   165   164    1
    61    99   100    1
    62   109   110    1
    63   164   163    1
    64   164   167    1
    65    42    41    1
    66    42    43    1
    67   111   110    1
    68   100   101   ar
    69   100   102   ar
    70    40    38   ar
    71    40    39   ar
    72    38    36   ar
    73   167   168    1
    74   168   169    1
    75   112   113    1
    76    39    37   ar
    77    36    35    1
    78    36    37   ar
    79    43    44    2
    80    43    45   am
    81    35    32    1
    82    45    46    1
    83   169   170    1
    84    55    56    1
    85   113   114    1
    86   113   116    1
    87    33    32    1
    88    33    34    2
    89   170   171    1
    90    56    57    1
    91    32    31    1
    92   114   115    2
    93    83    81   ar
    94    82    81   ar
    95   117   116    1
    96   117   118    1
    97    46    47    1
    98    46    49    1
    99    81    80    1
   100    48    47    2
   101    57    58    2
   102    57    59   am
   103    22    21    1
   104   118   120   am
   105   118   119    2
   106    53    54   ar
   107    53    51   ar
   108    54    52   ar
   109    51    50   ar
   110    52    50   ar
   111    49    50    1
   112    79    78    2
   113    93    92   ar
   114    93    91   ar
   115    59    60    1
   116    92    90   ar
   117    80    77    1
   118    21    20    2
   119    21    23    1
   120    77    78    1
   121    77    76    1
   122    78    84   am
   123    20    19    1
   124    91    89   ar
   125    29    28    1
   126    90    89   ar
   127    27    26    2
   128    60    63    1
   129    60    61    1
   130    28    30    1
   131    28    25    1
   132    89    88    1
   133    63    64    1
   134    19    18    1
   135    84    85    1
   136    26    25    1
   137    61    62    2
   138    85    88    1
   139    85    86    1
   140    25    24    1
   141    12    10   ar
   142    17    18    1
   143    17    14    1
   144    16    15    2
   145    86    87    2
   146    13    14    1
   147    13     7   am
   148    10     9    1
   149    10    11   ar
   150    14    15    1
   151     9     6    1
   152     4     3    2
   153     6     7    1
   154     6     5    1
   155    72    71    1
   156    72    73    2
   157     7     8    2
   158    75    73    1
   159    65    66    1
   160    71    70    1
   161     3     5   am
   162     3     2    1
   163    73    74    1
   164    70    69    1
   165     1     2    1
   166    66    69    1
   167    66    67    1
   168    67    68    2
