@<TRIPOS>MOLECULE
tmp/1yinA00.pdb
 202 191 0 0 0
SMALL
GASTEIGER

@<TRIPOS>ATOM
      1  N         35.6120   -7.8190   31.4120 N.3    37  MET37      -0.1245
      2  CA        35.6480   -7.1720   30.0980 C.3    37  MET37       0.1570
      3  C         35.1170   -8.1050   29.0170 C.2    37  MET37       0.2261
      4  O         34.4820   -7.6490   28.0680 O.2    37  MET37      -0.2867
      5  CB        37.0500   -6.6860   29.7390 C.3    37  MET37       0.0387
      6  CG        37.1520   -5.9540   28.4150 C.3    37  MET37       0.0595
      7  SD        36.2450   -4.4110   28.2510 S.3    37  MET37      -0.1393
      8  CE        36.1770   -3.8310   29.9400 C.3    37  MET37       0.0692
      9  N         31.4310   -7.7950   29.4340 N.3    40  LEU40      -0.1231
     10  CA        30.9890   -6.4930   28.9400 C.3    40  LEU40       0.1693
     11  C         31.1270   -6.3650   27.4260 C.2    40  LEU40       0.2592
     12  O         30.3220   -5.7470   26.7310 O.2    40  LEU40      -0.2718
     13  CB        31.7750   -5.3570   29.6080 C.3    40  LEU40       0.0284
     14  CG        31.6460   -5.2060   31.1220 C.3    40  LEU40       0.0019
     15  CD1       32.4590   -4.0260   31.6380 C.3    40  LEU40       0.0001
     16  CD2       30.1930   -5.0360   31.5290 C.3    40  LEU40       0.0001
     17  N         32.1810   -6.9540   26.8830 N.am   41  THR41      -0.1953
     18  CA        32.4520   -6.9290   25.4550 C.3    41  THR41       0.1897
     19  C         31.5080   -7.7820   24.6280 C.2    41  THR41       0.2313
     20  O         31.0180   -7.3850   23.5730 O.2    41  THR41      -0.2863
     21  CB        33.8910   -7.4350   25.2100 C.3    41  THR41       0.1794
     22  OG1       34.7830   -6.5640   25.9120 O.3    41  THR41      -0.2208
     23  CG2       34.2040   -7.3730   23.7290 C.3    41  THR41       0.0378
     24  N         28.5050   -8.5040   25.5310 N.3    43  LEU43      -0.1231
     25  CA        27.2200   -7.8340   25.6960 C.3    43  LEU43       0.1693
     26  C         27.0460   -6.6790   24.7110 C.2    43  LEU43       0.2592
     27  O         26.0590   -6.5490   23.9940 O.2    43  LEU43      -0.2718
     28  CB        27.0620   -7.2980   27.1260 C.3    43  LEU43       0.0284
     29  CG        25.6870   -6.7050   27.4430 C.3    43  LEU43       0.0019
     30  CD1       24.5660   -7.6660   27.0730 C.3    43  LEU43       0.0001
     31  CD2       25.5620   -6.3480   28.9150 C.3    43  LEU43       0.0001
     32  N         28.0560   -5.8200   24.6960 N.am   44  ALA44      -0.1966
     33  CA        28.1420   -4.6840   23.7940 C.3    44  ALA44       0.1728
     34  C         27.9820   -5.1510   22.3560 C.2    44  ALA44       0.2616
     35  O         27.2650   -4.5590   21.5580 O.2    44  ALA44      -0.2715
     36  CB        29.4660   -3.9670   23.9950 C.3    44  ALA44       0.0334
     37  N         28.6560   -6.2470   22.0150 N.am   45  ASP45      -0.1971
     38  CA        28.5400   -6.7620   20.6540 C.3    45  ASP45       0.1709
     39  C         27.1340   -7.2790   20.3710 C.2    45  ASP45       0.2293
     40  O         26.6070   -6.9940   19.2910 O.2    45  ASP45      -0.2864
     41  CB        29.5670   -7.8620   20.3970 C.3    45  ASP45       0.1436
     42  CG        30.9520   -7.3030   20.1370 C.2    45  ASP45       0.3671
     43  OD1       31.0620   -6.1660   19.6260 O.co2  45  ASP45      -0.2456
     44  OD2       31.9420   -8.0070   20.4320 O.co2  45  ASP45      -0.2456
     45  N         24.4330   -6.2380   21.6270 N.3    47  GLU47      -0.1231
     46  CA        23.5580   -5.0790   21.5900 C.3    47  GLU47       0.1699
     47  C         23.6320   -4.3160   20.2670 C.2    47  GLU47       0.2592
     48  O         22.6670   -3.7130   19.7880 O.2    47  GLU47      -0.2718
     49  CB        23.9270   -4.1240   22.7230 C.3    47  GLU47       0.0402
     50  CG        23.5860   -4.5770   24.1340 C.3    47  GLU47       0.1161
     51  CD        23.7660   -3.4020   25.0810 C.2    47  GLU47       0.3649
     52  OE1       22.9170   -2.4830   25.0920 O.co2  47  GLU47      -0.2457
     53  OE2       24.7700   -3.3670   25.8070 O.co2  47  GLU47      -0.2457
     54  N         24.8190   -4.3330   19.6660 N.am   48  LEU48      -0.1980
     55  CA        25.0670   -3.6280   18.4140 C.3    48  LEU48       0.1596
     56  C         24.1730   -4.1250   17.2800 C.2    48  LEU48       0.2287
     57  O         23.5980   -3.3290   16.5350 O.2    48  LEU48      -0.2864
     58  CB        26.5460   -3.7490   18.0000 C.3    48  LEU48       0.0297
     59  CG        26.8820   -3.0250   16.6880 C.3    48  LEU48       0.0022
     60  CD1       26.8550   -1.5260   16.9190 C.3    48  LEU48       0.0001
     61  CD2       28.2230   -3.4630   16.1270 C.3    48  LEU48       0.0001
     62  N         27.9510    4.7080   17.6710 N.3    77  TRP77      -0.1227
     63  CA        27.5740    3.4480   18.3080 C.3    77  TRP77       0.1737
     64  C         27.8520    3.4360   19.8080 C.2    77  TRP77       0.2595
     65  O         27.0090    2.9670   20.5760 O.2    77  TRP77      -0.2718
     66  CB        28.2600    2.2290   17.6610 C.3    77  TRP77       0.0564
     67  CG        29.7260    2.1110   17.9500 C.ar   77  TRP77       0.0003
     68  CD1       30.7320    2.7150   17.2500 C.ar   77  TRP77       0.0946
     69  CD2       30.3620    1.3650   18.9890 C.ar   77  TRP77       0.0152
     70  NE1       31.9470    2.3880   17.7890 N.ar   77  TRP77      -0.2442
     71  CE2       31.7480    1.5600   18.8600 C.ar   77  TRP77       0.0810
     72  CE3       29.9000    0.5450   20.0230 C.ar   77  TRP77       0.0012
     73  CZ2       32.6720    0.9710   19.7190 C.ar   77  TRP77       0.0191
     74  CZ3       30.8180   -0.0390   20.8770 C.ar   77  TRP77       0.0001
     75  CH2       32.1900    0.1730   20.7240 C.ar   77  TRP77       0.0015
     76  N         29.0100    3.9280   20.2370 N.am   78  LEU78      -0.1980
     77  CA        29.3200    3.8710   21.6640 C.3    78  LEU78       0.1596
     78  C         28.4840    4.8760   22.4470 C.2    78  LEU78       0.2287
     79  O         28.0520    4.5600   23.5610 O.2    78  LEU78      -0.2864
     80  CB        30.8130    4.0920   21.8900 C.3    78  LEU78       0.0297
     81  CG        31.2900    3.8470   23.3250 C.3    78  LEU78       0.0022
     82  CD1       30.7850    2.5030   23.8320 C.3    78  LEU78       0.0001
     83  CD2       32.8070    3.9170   23.4210 C.3    78  LEU78       0.0001
     84  N         25.1120    3.1700   22.9240 N.3    81  LEU81      -0.1231
     85  CA        25.2070    2.1250   23.9410 C.3    81  LEU81       0.1693
     86  C         25.1820    2.7490   25.3350 C.2    81  LEU81       0.2591
     87  O         24.4180    2.3320   26.2100 O.2    81  LEU81      -0.2718
     88  CB        26.4860    1.3120   23.7850 C.3    81  LEU81       0.0284
     89  CG        26.5410    0.3400   22.6080 C.3    81  LEU81       0.0019
     90  CD1       27.8010   -0.5140   22.6880 C.3    81  LEU81       0.0001
     91  CD2       25.2950   -0.5400   22.5700 C.3    81  LEU81       0.0001
     92  N         26.0410    3.7550   25.5120 N.am   82  MET82      -0.1979
     93  CA        26.1720    4.3570   26.8330 C.3    82  MET82       0.1605
     94  C         24.9120    5.0810   27.2750 C.2    82  MET82       0.2287
     95  O         24.5260    5.0350   28.4510 O.2    82  MET82      -0.2864
     96  CB        27.3500    5.3270   26.8530 C.3    82  MET82       0.0413
     97  CG        28.7150    4.6760   26.9610 C.3    82  MET82       0.0598
     98  SD        30.0320    5.8810   26.6410 S.3    82  MET82      -0.1393
     99  CE        31.4160    4.9120   27.2630 C.3    82  MET82       0.0692
    100  N         22.7480    2.3790   28.4800 N.3    85  LEU85      -0.1245
    101  CA        23.1960    1.8510   29.7600 C.3    85  LEU85       0.1561
    102  C         22.7720    2.7580   30.9120 C.2    85  LEU85       0.2260
    103  O         22.2580    2.2690   31.9110 O.2    85  LEU85      -0.2867
    104  CB        24.7210    1.6910   29.7400 C.3    85  LEU85       0.0270
    105  CG        25.2960    1.3670   31.1210 C.3    85  LEU85       0.0019
    106  CD1       24.7810    0.0180   31.5880 C.3    85  LEU85       0.0001
    107  CD2       26.8040    1.3930   31.0800 C.3    85  LEU85       0.0001
    108  N         18.9620    2.7940   31.6570 N.3    88  ARG88      -0.1245
    109  CA        18.3980    1.6690   32.4120 C.3    88  ARG88       0.1563
    110  C         18.9780    1.6090   33.8150 C.2    88  ARG88       0.2260
    111  O         18.5260    0.8290   34.6600 O.2    88  ARG88      -0.2867
    112  CB        18.6000    0.3760   31.6400 C.3    88  ARG88       0.0307
    113  CG        20.0260   -0.0560   31.3570 C.3    88  ARG88       0.0489
    114  CD        20.0460   -1.4150   30.6480 C.3    88  ARG88       0.2205
    115  NE        21.3970   -1.8280   30.2960 N.pl3  88  ARG88      -0.0865
    116  CZ        21.9490   -1.6460   29.1040 C.cat  88  ARG88       0.5346
    117  NH1       21.2810   -1.0590   28.1160 N.pl3  88  ARG88       0.1354
    118  NH2       23.1910   -2.0650   28.9050 N.pl3  88  ARG88       0.1354
    119  N         24.1300   -3.1530   33.4720 N.3    98  PHE98      -0.1241
    120  CA        24.6150   -3.6100   32.1790 C.3    98  PHE98       0.1605
    121  C         23.6700   -4.6250   31.5440 C.2    98  PHE98       0.2264
    122  O         23.4010   -4.6600   30.3530 O.2    98  PHE98      -0.2867
    123  CB        25.9980   -4.2410   32.3620 C.3    98  PHE98       0.0534
    124  CG        27.0950   -3.2060   32.5520 C.ar   98  PHE98      -0.0203
    125  CD1       27.6100   -2.5360   31.4500 C.ar   98  PHE98      -0.0042
    126  CD2       27.5860   -2.9190   33.8180 C.ar   98  PHE98      -0.0042
    127  CE1       28.6030   -1.5900   31.6020 C.ar   98  PHE98      -0.0003
    128  CE2       28.5860   -1.9720   33.9670 C.ar   98  PHE98      -0.0003
    129  CZ        29.0920   -1.3090   32.8670 C.ar   98  PHE98      -0.0000
    130  N         39.2310    1.4100   34.1660 N.3   115  MET115     -0.1245
    131  CA        37.8190    1.4620   33.8060 C.3   115  MET115      0.1570
    132  C         36.9640    2.2460   34.7890 C.2   115  MET115      0.2261
    133  O         35.9090    2.7660   34.4270 O.2   115  MET115     -0.2867
    134  CB        37.2400    0.0430   33.6760 C.3   115  MET115      0.0387
    135  CG        35.7260    0.0970   33.4890 C.3   115  MET115      0.0595
    136  SD        35.0690   -1.3440   32.6360 S.3   115  MET115     -0.1393
    137  CE        35.0290   -2.5590   33.9510 C.3   115  MET115      0.0692
    138  N         35.6060    5.7030   33.7020 N.3   118  ILE118     -0.1231
    139  CA        34.4410    5.5880   32.8430 C.3   118  ILE118      0.1692
    140  C         33.1820    5.2990   33.6680 C.2   118  ILE118      0.2592
    141  O         32.2040    6.0330   33.5090 O.2   118  ILE118     -0.2718
    142  CB        34.6050    4.4850   31.7770 C.3   118  ILE118      0.0266
    143  CG1       36.0060    4.3860   31.1660 C.3   118  ILE118      0.0019
    144  CG2       33.5690    4.6270   30.6690 C.3   118  ILE118      0.0020
    145  CD1       36.0800    4.8950   29.7440 C.3   118  ILE118      0.0001
    146  N         33.2070    4.2780   34.5140 N.am  119  PHE119     -0.1976
    147  CA        32.1130    3.9390   35.4160 C.3   119  PHE119      0.1639
    148  C         31.6670    5.1680   36.2120 C.2   119  PHE119      0.2290
    149  O         30.4840    5.4580   36.3950 O.2   119  PHE119     -0.2864
    150  CB        32.4950    2.8250   36.3870 C.3   119  PHE119      0.0560
    151  CG        32.1280    1.3860   36.1030 C.ar  119  PHE119     -0.0200
    152  CD1       32.5310    0.7250   34.9540 C.ar  119  PHE119     -0.0042
    153  CD2       31.3680    0.6490   37.0040 C.ar  119  PHE119     -0.0042
    154  CE1       32.2070   -0.5950   34.7090 C.ar  119  PHE119     -0.0003
    155  CE2       31.0310   -0.6750   36.7790 C.ar  119  PHE119     -0.0003
    156  CZ        31.4550   -1.3150   35.6270 C.ar  119  PHE119     -0.0000
    157  N         29.6650    7.4370   33.8670 N.3   122  LEU122     -0.1245
    158  CA        28.3340    6.9130   33.5570 C.3   122  LEU122      0.1561
    159  C         27.4240    7.0530   34.7700 C.2   122  LEU122      0.2260
    160  O         26.2700    7.4770   34.6780 O.2   122  LEU122     -0.2867
    161  CB        28.4280    5.4600   33.0860 C.3   122  LEU122      0.0270
    162  CG        29.1920    5.1990   31.7850 C.3   122  LEU122      0.0019
    163  CD1       29.7300    3.7700   31.7120 C.3   122  LEU122      0.0001
    164  CD2       28.3220    5.4700   30.5610 C.3   122  LEU122      0.0001
    165  N         35.9920    6.4910   26.1920 N.3   215  GLY215     -0.1225
    166  CA        35.7360    5.0720   26.0050 C.3   215  GLY215      0.1811
    167  C         36.4910    4.4940   24.8320 C.2   215  GLY215      0.2280
    168  O         37.0900    3.4280   24.9600 O.2   215  GLY215     -0.2866
    169  N         40.1090    4.1010   25.7650 N.3   218  HIS218     -0.1226
    170  CA        40.2610    2.9340   26.6280 C.3   218  HIS218      0.1752
    171  C         40.1580    1.6680   25.7840 C.2   218  HIS218      0.2595
    172  O         41.0310    0.8050   25.7940 O.2   218  HIS218     -0.2718
    173  CB        39.2140    2.9490   27.7330 C.3   218  HIS218      0.0759
    174  CG        39.3980    2.0420   28.9050 C.ar  218  HIS218      0.0818
    175  ND1       38.4710    1.0860   29.2660 N.ar  218  HIS218     -0.2268
    176  CD2       40.3830    1.9280   29.8290 C.ar  218  HIS218      0.1154
    177  CE1       38.8670    0.4240   30.3390 C.ar  218  HIS218      0.1986
    178  NE2       40.0370    0.9220   30.7020 N.ar  218  HIS218     -0.2212
    179  N         39.0790    1.5640   25.0120 N.am  219  LEU219     -0.1980
    180  CA        38.8500    0.4300   24.1250 C.3   219  LEU219      0.1596
    181  C         40.0630    0.1570   23.2490 C.2   219  LEU219      0.2287
    182  O         40.3530   -0.9770   22.8710 O.2   219  LEU219     -0.2864
    183  CB        37.6140    0.6680   23.2510 C.3   219  LEU219      0.0297
    184  CG        36.2680    0.3870   23.9260 C.3   219  LEU219      0.0022
    185  CD1       35.2110    0.0750   22.8850 C.3   219  LEU219      0.0001
    186  CD2       36.4120   -0.7550   24.9170 C.3   219  LEU219      0.0001
    187  N         35.2970   -1.7220   11.5020 N.3   226  LEU226     -0.1245
    188  CA        33.9330   -1.6520   12.0290 C.3   226  LEU226      0.1561
    189  C         32.9580   -1.1920   10.9500 C.2   226  LEU226      0.2260
    190  O         31.7820   -1.5570   10.9850 O.2   226  LEU226     -0.2867
    191  CB        33.8890   -0.7500   13.2570 C.3   226  LEU226      0.0270
    192  CG        32.5100   -0.6320   13.9180 C.3   226  LEU226      0.0019
    193  CD1       32.0940   -1.9550   14.5390 C.3   226  LEU226      0.0001
    194  CD2       32.5120    0.4860   14.9490 C.3   226  LEU226      0.0001
    195  N         31.7830   -4.4120    9.0680 N.3   229  LEU229     -0.1245
    196  CA        30.8150   -5.1490    9.8740 C.3   229  LEU229      0.1561
    197  C         29.4760   -4.4230    9.8590 C.2   229  LEU229      0.2260
    198  O         28.4210   -4.9830    9.5800 O.2   229  LEU229     -0.2867
    199  CB        31.3440   -5.3080   11.2960 C.3   229  LEU229      0.0270
    200  CG        30.3330   -5.6860   12.3750 C.3   229  LEU229      0.0019
    201  CD1       29.5700   -6.9440   11.9840 C.3   229  LEU229      0.0001
    202  CD2       31.0160   -5.8830   13.7210 C.3   229  LEU229      0.0001
@<TRIPOS>BOND
     1   195   196    1
     2   198   197    2
     3   197   196    1
     4   196   199    1
     5   189   190    2
     6   189   188    1
     7   199   200    1
     8   187   188    1
     9   201   200    1
    10   188   191    1
    11   200   202    1
    12   191   192    1
    13   192   193    1
    14   192   194    1
    15    61    59    1
    16    57    56    2
    17    59    60    1
    18    59    58    1
    19    68    70   ar
    20    68    67   ar
    21    56    55    1
    22    66    67    1
    23    66    63    1
    24    62    63    1
    25    70    71   ar
    26    67    69   ar
    27    58    55    1
    28    63    64    1
    29    55    54    1
    30    71    69   ar
    31    71    73   ar
    32    69    72   ar
    33    40    39    2
    34    43    42   ar
    35    54    47   am
    36    73    75   ar
    37    48    47    2
    38    64    76   am
    39    64    65    2
    40    72    74   ar
    41    42    41    1
    42    42    44   ar
    43    76    77    1
    44    47    46    1
    45    39    38    1
    46    41    38    1
    47    38    37    1
    48    75    74   ar
    49    35    34    2
    50    46    45    1
    51    46    49    1
    52    77    80    1
    53    77    78    1
    54    80    81    1
    55    37    34   am
    56    34    33    1
    57    78    79    2
    58    91    89    1
    59    89    90    1
    60    89    88    1
    61    49    50    1
    62   182   181    2
    63   185   184    1
    64    84    85    1
    65   181   180    1
    66   183   184    1
    67   183   180    1
    68    81    83    1
    69    81    82    1
    70    20    19    2
    71    23    21    1
    72    88    85    1
    73    33    36    1
    74    33    32    1
    75   184   186    1
    76    85    86    1
    77    27    26    2
    78   180   179    1
    79    50    51    1
    80    19    18    1
    81    32    26   am
    82    26    25    1
    83   167   168    2
    84   167   166    1
    85   179   171   am
    86    51    52   ar
    87    51    53   ar
    88    21    18    1
    89    21    22    1
    90    86    92   am
    91    86    87    2
    92    18    17    1
    93    92    93    1
    94    24    25    1
    95    25    28    1
    96   169   170    1
    97   171   172    2
    98   171   170    1
    99   166   165    1
   100   170   173    1
   101    98    97    1
   102    98    99    1
   103    12    11    2
   104    93    96    1
   105    93    94    1
   106    96    97    1
   107    17    11   am
   108    30    29    1
   109    28    29    1
   110    94    95    2
   111    11    10    1
   112    29    31    1
   113   173   174    1
   114     4     3    2
   115   117   116    1
   116     7     6    1
   117     7     8    1
   118     6     5    1
   119   100   101    1
   120   118   116    1
   121   174   175   ar
   122   174   176   ar
   123    10     9    1
   124    10    13    1
   125     3     2    1
   126   116   115    2
   127   175   177   ar
   128    13    14    1
   129     5     2    1
   130   104   101    1
   131   104   105    1
   132   145   143    1
   133   101   102    1
   134   176   178   ar
   135     2     1    1
   136   115   114    1
   137   177   178   ar
   138   122   121    2
   139   164   162    1
   140   114   113    1
   141   144   142    1
   142   102   103    2
   143   107   105    1
   144   105   106    1
   145    14    16    1
   146    14    15    1
   147   143   142    1
   148   113   112    1
   149   125   127   ar
   150   125   124   ar
   151   121   120    1
   152   127   129   ar
   153   112   109    1
   154   108   109    1
   155   163   162    1
   156   142   139    1
   157   162   161    1
   158   120   123    1
   159   120   119    1
   160   123   124    1
   161   109   110    1
   162   124   126   ar
   163   136   135    1
   164   136   137    1
   165   139   140    1
   166   139   138    1
   167   129   128   ar
   168   161   158    1
   169   135   134    1
   170   141   140    2
   171   158   157    1
   172   158   159    1
   173   140   146   am
   174   134   131    1
   175   131   130    1
   176   131   132    1
   177   110   111    2
   178   126   128   ar
   179   133   132    2
   180   146   147    1
   181   160   159    2
   182   154   152   ar
   183   154   156   ar
   184   152   151   ar
   185   147   148    1
   186   147   150    1
   187   156   155   ar
   188   151   150    1
   189   151   153   ar
   190   148   149    2
   191   155   153   ar
