@<TRIPOS>MOLECULE
tmp/1yiqA00.pdb
 191 183 0 0 0
SMALL
GASTEIGER

@<TRIPOS>ATOM
      1  N          1.9890   35.7270   -6.6140 N.3    63  GLU63      -0.1245
      2  CA         2.4630   36.0870   -5.2880 C.3    63  GLU63       0.1567
      3  C          2.8950   37.5360   -5.1310 C.2    63  GLU63       0.2260
      4  O          3.4030   37.9290   -4.0770 O.2    63  GLU63      -0.2867
      5  CB         3.6330   35.1710   -4.9220 C.3    63  GLU63       0.0388
      6  CG         3.3870   33.7220   -5.2990 C.3    63  GLU63       0.1160
      7  CD         4.4270   32.7720   -4.7480 C.2    63  GLU63       0.3649
      8  OE1        4.2590   31.5450   -4.9350 O.co2  63  GLU63      -0.2457
      9  OE2        5.4060   33.2490   -4.1340 O.co2  63  GLU63      -0.2457
     10  N         11.7600   25.4390   -8.2310 N.3   109  CYS109     -0.1221
     11  CA        11.2060   24.4220   -7.3490 C.3   109  CYS109      0.1808
     12  C          9.7440   24.5440   -7.1000 C.2   109  CYS109      0.2601
     13  O          9.0100   23.5560   -7.0310 O.2   109  CYS109     -0.2717
     14  CB        11.8190   24.5110   -5.9580 C.3   109  CYS109      0.0970
     15  SG        11.3370   25.9910   -4.9660 S.3   109  CYS109     -0.0800
     16  N          9.3240   25.7840   -6.9730 N.am  110  CYS110     -0.1970
     17  CA         7.9900   26.0250   -6.5260 C.3   110  CYS110      0.1712
     18  C          7.0560   26.8810   -7.3650 C.2   110  CYS110      0.2296
     19  O          6.4530   27.8270   -6.8550 O.2   110  CYS110     -0.2864
     20  CB         8.1780   26.5820   -5.1240 C.3   110  CYS110      0.0983
     21  SG         9.4660   25.6910   -4.1400 S.3   110  CYS110     -0.0798
     22  N          6.6970   31.6340  -10.0010 N.3   113  VAL113     -0.1245
     23  CA         6.2180   32.8210   -9.3140 C.3   113  VAL113      0.1561
     24  C          7.1680   34.0120   -9.2480 C.2   113  VAL113      0.2260
     25  O          8.3600   33.9080   -9.5510 O.2   113  VAL113     -0.2867
     26  CB         5.7890   32.4610   -7.8690 C.3   113  VAL113      0.0252
     27  CG1        4.7000   31.3950   -7.9080 C.3   113  VAL113      0.0019
     28  CG2        7.0000   31.9510   -7.0600 C.3   113  VAL113      0.0019
     29  N          7.3170   37.6700   -6.5980 N.3   115  ARG115     -0.1245
     30  CA         6.6650   38.4170   -5.5220 C.3   115  ARG115      0.1563
     31  C          6.5830   39.9350   -5.6720 C.2   115  ARG115      0.2260
     32  O          6.2590   40.6360   -4.7140 O.2   115  ARG115     -0.2867
     33  CB         7.3060   38.0430   -4.1780 C.3   115  ARG115      0.0307
     34  CG         7.3740   36.5380   -4.0120 C.3   115  ARG115      0.0489
     35  CD         7.7800   36.0380   -2.6350 C.3   115  ARG115      0.2205
     36  NE         7.7380   34.5810   -2.6780 N.pl3 115  ARG115     -0.0865
     37  CZ         8.7030   33.8240   -3.1920 C.cat 115  ARG115      0.5346
     38  NH1        9.8050   34.3770   -3.6800 N.pl3 115  ARG115      0.1354
     39  NH2        8.5310   32.5170   -3.3000 N.pl3 115  ARG115      0.1354
     40  N         17.5350   30.6930   -9.5610 N.3   158  THR158     -0.1218
     41  CA        16.3650   31.4000  -10.0710 C.3   158  THR158      0.1862
     42  C         16.0750   32.5570   -9.1270 C.2   158  THR158      0.2287
     43  O         16.6490   32.6320   -8.0410 O.2   158  THR158     -0.2866
     44  CB        15.0910   30.4990  -10.1120 C.3   158  THR158      0.1770
     45  OG1       14.8340   29.9770   -8.8040 O.3   158  THR158     -0.2211
     46  CG2       15.2560   29.3530  -11.0900 C.3   158  THR158      0.0375
     47  N         12.7230   34.6370   -7.4660 N.3   160  THR160     -0.1218
     48  CA        11.2730   34.6730   -7.2880 C.3   160  THR160      0.1862
     49  C         10.7970   35.8360   -6.4090 C.2   160  THR160      0.2287
     50  O          9.6570   36.2810   -6.5240 O.2   160  THR160     -0.2866
     51  CB        10.7740   33.3810   -6.6310 C.3   160  THR160      0.1770
     52  OG1       11.4910   33.1670   -5.4090 O.3   160  THR160     -0.2211
     53  CG2       10.9780   32.2010   -7.5470 C.3   160  THR160      0.0375
     54  N         16.8100   31.6790   -5.6170 N.3   175  GLY175     -0.1210
     55  CA        16.3110   30.4360   -5.0560 C.3   175  GLY175      0.1956
     56  C         17.0300   29.2680   -5.6950 C.2   175  GLY175      0.2612
     57  O         17.7060   29.4390   -6.7080 O.2   175  GLY175     -0.2717
     58  N         16.8980   28.0820   -5.1100 N.am  176  GLY176     -0.1942
     59  CA        17.5450   26.9170   -5.6830 C.3   176  GLY176      0.2014
     60  C         18.1220   25.9190   -4.6950 C.2   176  GLY176      0.2639
     61  O         18.7680   24.9540   -5.1030 O.2   176  GLY176     -0.2714
     62  N         17.8990   26.1280   -3.4020 N.am  177  ALA177     -0.1963
     63  CA        18.4250   25.2050   -2.4050 C.3   177  ALA177      0.1728
     64  C         17.8290   23.8000   -2.5230 C.2   177  ALA177      0.2616
     65  O         18.3560   22.8520   -1.9360 O.2   177  ALA177     -0.2715
     66  CB        18.1970   25.7530   -1.0130 C.3   177  ALA177      0.0334
     67  N         16.7400   23.6570   -3.2770 N.am  178  GLU178     -0.1977
     68  CA        16.1220   22.3460   -3.4550 C.3   178  GLU178      0.1602
     69  C         16.8310   21.5430   -4.5270 C.2   178  GLU178      0.2287
     70  O         16.6570   20.3260   -4.6140 O.2   178  GLU178     -0.2864
     71  CB        14.6440   22.4760   -3.8290 C.3   178  GLU178      0.0415
     72  CG        13.7220   22.3110   -2.6440 C.3   178  GLU178      0.1163
     73  CD        14.0520   23.2750   -1.5390 C.2   178  GLU178      0.3649
     74  OE1       13.8010   24.4800   -1.7280 O.co2 178  GLU178     -0.2457
     75  OE2       14.5720   22.8350   -0.4940 O.co2 178  GLU178     -0.2457
     76  N         20.0060   29.9220    0.4900 N.3   235  THR235     -0.1218
     77  CA        19.5540   30.9180   -0.4610 C.3   235  THR235      0.1862
     78  C         18.6680   31.9340    0.2570 C.2   235  THR235      0.2287
     79  O         17.9430   31.5790    1.1920 O.2   235  THR235     -0.2866
     80  CB        18.7510   30.2740   -1.6090 C.3   235  THR235      0.1770
     81  OG1       17.7430   29.4180   -1.0600 O.3   235  THR235     -0.2211
     82  CG2       19.6640   29.4580   -2.5130 C.3   235  THR235      0.0375
     83  N         15.9760   33.8100   -0.9220 N.3   237  TRP237     -0.1241
     84  CA        15.0200   33.9640   -2.0070 C.3   237  TRP237      0.1605
     85  C         13.7570   34.7490   -1.6950 C.2   237  TRP237      0.2264
     86  O         12.7920   34.6710   -2.4450 O.2   237  TRP237     -0.2867
     87  CB        14.6110   32.5780   -2.4930 C.3   237  TRP237      0.0550
     88  CG        14.0980   31.7250   -1.3790 C.ar  237  TRP237      0.0003
     89  CD1       14.8380   30.9690   -0.5150 C.ar  237  TRP237      0.0946
     90  CD2       12.7330   31.5880   -0.9670 C.ar  237  TRP237      0.0152
     91  NE1       14.0160   30.3660    0.4110 N.ar  237  TRP237     -0.2442
     92  CE2       12.7200   30.7320    0.1600 C.ar  237  TRP237      0.0810
     93  CE3       11.5190   32.1060   -1.4370 C.ar  237  TRP237      0.0012
     94  CZ2       11.5360   30.3810    0.8260 C.ar  237  TRP237      0.0191
     95  CZ3       10.3410   31.7590   -0.7790 C.ar  237  TRP237      0.0001
     96  CH2       10.3610   30.9010    0.3460 C.ar  237  TRP237      0.0015
     97  N         17.2890   27.3200    3.8450 N.3   255  ASN255     -0.1240
     98  CA        17.6950   25.9830    4.2880 C.3   255  ASN255      0.1653
     99  C         18.9830   25.4110    3.7110 C.2   255  ASN255      0.2266
    100  O         19.5240   25.9150    2.7320 O.2   255  ASN255     -0.2867
    101  CB        16.5800   24.9820    3.9950 C.3   255  ASN255      0.1155
    102  CG        16.3520   24.7940    2.5140 C.2   255  ASN255      0.2627
    103  OD1       15.7430   25.6310    1.8640 O.2   255  ASN255     -0.2716
    104  ND2       16.8620   23.6980    1.9700 N.am  255  ASN255     -0.0877
    105  N         14.4140   21.5700    6.2090 N.3   300  ASP300     -0.1239
    106  CA        14.0370   22.5720    5.2080 C.3   300  ASP300      0.1674
    107  C         13.5070   23.8120    5.9100 C.2   300  ASP300      0.2266
    108  O         12.6240   24.4850    5.3950 O.2   300  ASP300     -0.2867
    109  CB        12.9490   22.0310    4.2620 C.3   300  ASP300      0.1410
    110  CG        12.7930   22.8750    2.9920 C.2   300  ASP300      0.3668
    111  OD1       11.6440   23.1280    2.5680 O.co2 300  ASP300     -0.2456
    112  OD2       13.8250   23.2750    2.4030 O.co2 300  ASP300     -0.2456
    113  N         13.7560   27.2610    6.5170 N.3   302  THR302     -0.1218
    114  CA        14.3430   28.5040    6.0410 C.3   302  THR302      0.1862
    115  C         14.0980   29.6140    7.0620 C.2   302  THR302      0.2287
    116  O         13.3230   29.4510    8.0140 O.2   302  THR302     -0.2866
    117  CB        13.6890   28.9580    4.7240 C.3   302  THR302      0.1770
    118  OG1       12.2830   29.1260    4.9400 O.3   302  THR302     -0.2211
    119  CG2       13.9020   27.9250    3.6190 C.3   302  THR302      0.0375
    120  N         10.0420   29.3590    9.3370 N.3   327  LYS327     -0.1245
    121  CA         9.4100   28.0530    9.2280 C.3   327  LYS327      0.1561
    122  C          9.4220   27.1810   10.4810 C.2   327  LYS327      0.2260
    123  O          8.4470   26.4700   10.7440 O.2   327  LYS327     -0.2867
    124  CB        10.0380   27.2510    8.0870 C.3   327  LYS327      0.0271
    125  CG         9.7130   27.7210    6.6820 C.3   327  LYS327      0.0035
    126  CD        10.1410   26.6350    5.6950 C.3   327  LYS327      0.0206
    127  CE         9.9230   27.0110    4.2420 C.3   327  LYS327      0.1093
    128  NZ        10.4140   25.9080    3.3610 N.3   327  LYS327     -0.1314
    129  N          8.2020   20.8910    5.7090 N.3   385  PHE385     -0.1227
    130  CA         8.8200   21.7720    4.7180 C.3   385  PHE385      0.1736
    131  C          8.1010   23.0510    4.3140 C.2   385  PHE385      0.2595
    132  O          8.6630   23.8570    3.5760 O.2   385  PHE385     -0.2718
    133  CB         9.2470   20.9790    3.4720 C.3   385  PHE385      0.0547
    134  CG         8.2210   19.9950    2.9720 C.ar  385  PHE385     -0.0202
    135  CD1        7.1400   20.4170    2.2070 C.ar  385  PHE385     -0.0042
    136  CD2        8.3620   18.6330    3.2370 C.ar  385  PHE385     -0.0042
    137  CE1        6.2150   19.4960    1.7080 C.ar  385  PHE385     -0.0003
    138  CE2        7.4460   17.7040    2.7460 C.ar  385  PHE385     -0.0003
    139  CZ         6.3700   18.1350    1.9790 C.ar  385  PHE385     -0.0000
    140  N          6.8740   23.2570    4.7770 N.am  386  TRP386     -0.1976
    141  CA         6.1900   24.5100    4.4610 C.3   386  TRP386      0.1640
    142  C          6.0190   25.3470    5.7320 C.2   386  TRP386      0.2290
    143  O          5.3040   26.3480    5.7540 O.2   386  TRP386     -0.2864
    144  CB         4.8580   24.2550    3.7350 C.3   386  TRP386      0.0576
    145  CG         5.1010   23.9570    2.2670 C.ar  386  TRP386      0.0006
    146  CD1        6.0280   24.5610    1.4600 C.ar  386  TRP386      0.0946
    147  CD2        4.4650   22.9570    1.4570 C.ar  386  TRP386      0.0152
    148  NE1        6.0130   23.9980    0.2140 N.ar  386  TRP386     -0.2442
    149  CE2        5.0650   23.0120    0.1790 C.ar  386  TRP386      0.0810
    150  CE3        3.4490   22.0210    1.6840 C.ar  386  TRP386      0.0012
    151  CZ2        4.6870   22.1670   -0.8670 C.ar  386  TRP386      0.0191
    152  CZ3        3.0710   21.1780    0.6400 C.ar  386  TRP386      0.0001
    153  CH2        3.6910   21.2580   -0.6180 C.ar  386  TRP386      0.0015
    154  N          5.2470   30.5430    5.8950 N.3   390  ASP390     -0.1225
    155  CA         6.1460   30.5720    4.7400 C.3   390  ASP390      0.1805
    156  C          6.3000   31.9970    4.2010 C.2   390  ASP390      0.2597
    157  O          6.2630   32.9570    4.9760 O.2   390  ASP390     -0.2718
    158  CB         5.6570   29.6120    3.6400 C.3   390  ASP390      0.1424
    159  CG         6.7930   29.1330    2.7180 C.2   390  ASP390      0.3668
    160  OD1        6.8460   27.9190    2.4020 O.co2 390  ASP390     -0.2456
    161  OD2        7.6320   29.9660    2.3010 O.co2 390  ASP390     -0.2456
    162  N          6.4520   32.1390    2.8840 N.am  391  TRP391     -0.1976
    163  CA         6.6650   33.4530    2.2700 C.3   391  TRP391      0.1640
    164  C          5.5490   34.4860    2.4100 C.2   391  TRP391      0.2290
    165  O          5.8300   35.6830    2.4570 O.2   391  TRP391     -0.2864
    166  CB         7.0050   33.3130    0.7780 C.3   391  TRP391      0.0576
    167  CG         5.8560   32.8460   -0.0690 C.ar  391  TRP391      0.0006
    168  CD1        5.5550   31.5590   -0.4010 C.ar  391  TRP391      0.0946
    169  CD2        4.8200   33.6590   -0.6340 C.ar  391  TRP391      0.0152
    170  NE1        4.3960   31.5150   -1.1360 N.ar  391  TRP391     -0.2442
    171  CE2        3.9200   32.7900   -1.2920 C.ar  391  TRP391      0.0810
    172  CE3        4.5620   35.0360   -0.6460 C.ar  391  TRP391      0.0012
    173  CZ2        2.7740   33.2540   -1.9560 C.ar  391  TRP391      0.0191
    174  CZ3        3.4150   35.5010   -1.3110 C.ar  391  TRP391      0.0001
    175  CH2        2.5400   34.6080   -1.9530 C.ar  391  TRP391      0.0015
    176  N         -1.4360   27.8500    3.0410 N.3   477  PHE477     -0.1241
    177  CA        -1.1370   28.7720    1.9540 C.3   477  PHE477      0.1605
    178  C         -2.1550   29.8750    1.7190 C.2   477  PHE477      0.2264
    179  O         -2.4270   30.2640    0.5810 O.2   477  PHE477     -0.2867
    180  CB        -0.8540   28.0120    0.6580 C.3   477  PHE477      0.0534
    181  CG         0.6180   27.7930    0.4090 C.ar  477  PHE477     -0.0203
    182  CD1        1.4120   27.1400    1.3550 C.ar  477  PHE477     -0.0042
    183  CD2        1.2180   28.2580   -0.7610 C.ar  477  PHE477     -0.0042
    184  CE1        2.7800   26.9560    1.1410 C.ar  477  PHE477     -0.0003
    185  CE2        2.5850   28.0810   -0.9840 C.ar  477  PHE477     -0.0003
    186  CZ         3.3680   27.4290   -0.0330 C.ar  477  PHE477     -0.0000
    187  N          4.1010   26.5210   -4.4640 N.3   542  ALA542     -0.1245
    188  CA         4.5740   25.1870   -4.1230 C.3   542  ALA542      0.1562
    189  C          3.5130   24.2160   -3.6300 C.2   542  ALA542      0.2260
    190  O          3.4950   23.0590   -4.0460 O.2   542  ALA542     -0.2867
    191  CB         5.6880   25.2850   -3.0830 C.3   542  ALA542      0.0290
@<TRIPOS>BOND
     1    46    44    1
     2    44    41    1
     3    44    45    1
     4    41    40    1
     5    41    42    1
     6    22    23    1
     7    25    24    2
     8    23    24    1
     9    23    26    1
    10    42    43    2
    11    10    11    1
    12    27    26    1
    13    26    28    1
    14    53    51    1
    15    47    48    1
    16    18    19    2
    17    18    17    1
    18    11    12    1
    19    11    14    1
    20    48    51    1
    21    48    49    1
    22    12    13    2
    23    12    16   am
    24    16    17    1
    25    57    56    2
    26    51    52    1
    27     1     2    1
    28    29    30    1
    29    17    20    1
    30    50    49    2
    31    14    15    1
    32    56    58   am
    33    56    55    1
    34    59    58    1
    35    59    60    1
    36    31    30    1
    37    31    32    2
    38    54    55    1
    39    30    33    1
    40     6     5    1
    41     6     7    1
    42     2     3    1
    43     2     5    1
    44     3     4    2
    45    20    21    1
    46    61    60    2
    47    15    21    1
    48     8     7   ar
    49     7     9   ar
    50    60    62   am
    51    70    69    2
    52    69    68    1
    53   187   188    1
    54    33    34    1
    55   188   189    1
    56   188   191    1
    57   190   189    2
    58    34    35    1
    59    71    68    1
    60    71    72    1
    61    38    37    1
    62    68    67    1
    63    62    63    1
    64    39    37    1
    65    67    64   am
    66    37    36    2
    67    36    35    1
    68    72    73    1
    69    64    63    1
    70    64    65    2
    71    82    80    1
    72    87    84    1
    73    87    88    1
    74    86    85    2
    75    63    66    1
    76    84    85    1
    77    84    83    1
    78   173   175   ar
    79   173   171   ar
    80   175   174   ar
    81    74    73   ar
    82    80    81    1
    83    80    77    1
    84    73    75   ar
    85    93    90   ar
    86    93    95   ar
    87    88    90   ar
    88    88    89   ar
    89   174   172   ar
    90   171   170   ar
    91   171   169   ar
    92   170   168   ar
    93   185   183   ar
    94   185   186   ar
    95    90    92   ar
    96   151   153   ar
    97   151   149   ar
    98    95    96   ar
    99   183   181   ar
   100   172   169   ar
   101   169   167   ar
   102   153   152   ar
   103    89    91   ar
   104    77    78    1
   105    77    76    1
   106   168   167   ar
   107   167   166    1
   108   186   184   ar
   109    92    91   ar
   110    92    94   ar
   111   149   148   ar
   112   149   147   ar
   113   148   146   ar
   114    78    79    2
   115    96    94   ar
   116   181   180    1
   117   181   182   ar
   118   179   178    2
   119   152   150   ar
   120   180   177    1
   121   166   163    1
   122   184   182   ar
   123   147   150   ar
   124   147   145   ar
   125   146   145   ar
   126   137   139   ar
   127   137   135   ar
   128   178   177    1
   129   103   102    2
   130   177   176    1
   131   104   102   am
   132   139   138   ar
   133   135   134   ar
   134   145   144    1
   135   163   164    1
   136   163   162    1
   137   161   159   ar
   138   160   159   ar
   139   112   110   ar
   140   164   165    2
   141   102   101    1
   142   111   110   ar
   143   159   158    1
   144   100    99    2
   145   138   136   ar
   146   162   156   am
   147   134   136   ar
   148   134   133    1
   149   110   109    1
   150   128   127    1
   151   133   130    1
   152   132   131    2
   153   119   117    1
   154   158   155    1
   155    99    98    1
   156   144   141    1
   157    97    98    1
   158   101    98    1
   159   156   155    1
   160   156   157    2
   161   127   126    1
   162   109   106    1
   163   131   130    1
   164   131   140   am
   165   141   140    1
   166   141   142    1
   167   130   129    1
   168   117   118    1
   169   117   114    1
   170   155   154    1
   171   106   107    1
   172   106   105    1
   173   108   107    2
   174   126   125    1
   175   142   143    2
   176   114   113    1
   177   114   115    1
   178   125   124    1
   179   115   116    2
   180   124   121    1
   181   121   120    1
   182   121   122    1
   183   122   123    2
