@<TRIPOS>MOLECULE
tmp/1yiqA01.pdb
 234 224 0 0 0
SMALL
GASTEIGER

@<TRIPOS>ATOM
      1  N         -1.0700   34.2650  -17.4520 N.3    58  LEU58      -0.1245
      2  CA        -1.0140   32.8330  -17.1450 C.3    58  LEU58       0.1561
      3  C         -1.6970   32.4820  -15.8290 C.2    58  LEU58       0.2260
      4  O         -1.4990   33.1530  -14.8200 O.2    58  LEU58      -0.2867
      5  CB         0.4350   32.3480  -17.0970 C.3    58  LEU58       0.0270
      6  CG         1.1680   32.1710  -18.4270 C.3    58  LEU58       0.0019
      7  CD1        2.6470   31.8710  -18.1590 C.3    58  LEU58       0.0001
      8  CD2        0.5100   31.0450  -19.2250 C.3    58  LEU58       0.0001
      9  N         -1.3150   30.6580  -13.1270 N.3    60  ARG60      -0.1245
     10  CA        -0.4270   29.9200  -12.2390 C.3    60  ARG60       0.1563
     11  C         -0.2650   30.8000  -11.0010 C.2    60  ARG60       0.2260
     12  O         -0.8860   31.8630  -10.9160 O.2    60  ARG60      -0.2867
     13  CB         0.9170   29.6370  -12.9360 C.3    60  ARG60       0.0307
     14  CG         0.7690   28.7140  -14.1640 C.3    60  ARG60       0.0489
     15  CD         2.0860   28.3940  -14.8740 C.3    60  ARG60       0.2205
     16  NE         3.0130   27.6660  -14.0150 N.pl3  60  ARG60      -0.0865
     17  CZ         4.1010   27.0290  -14.4410 C.cat  60  ARG60       0.5346
     18  NH1        4.4110   27.0160  -15.7300 N.pl3  60  ARG60       0.1354
     19  NH2        4.8920   26.4200  -13.5700 N.pl3  60  ARG60       0.1354
     20  N         12.8400   26.5300  -17.0940 N.3   105  ALA105     -0.1231
     21  CA        11.6480   26.6380  -16.2660 C.3   105  ALA105      0.1694
     22  C         11.6060   25.5880  -15.1610 C.2   105  ALA105      0.2592
     23  O         11.0600   25.8330  -14.0840 O.2   105  ALA105     -0.2718
     24  CB        10.4060   26.5410  -17.1330 C.3   105  ALA105      0.0304
     25  N         12.1910   24.4240  -15.4260 N.am  106  GLY106     -0.1957
     26  CA        12.2010   23.3550  -14.4440 C.3   106  GLY106      0.1869
     27  C         13.2090   23.5760  -13.3340 C.2   106  GLY106      0.2309
     28  O         13.3380   22.7450  -12.4360 O.2   106  GLY106     -0.2863
     29  N         12.9510   25.9470  -11.3560 N.3   108  ALA108     -0.1245
     30  CA        12.1620   26.5940  -10.3170 C.3   108  ALA108      0.1562
     31  C         11.4670   25.4890   -9.5230 C.2   108  ALA108      0.2260
     32  O         10.6890   24.7000  -10.0670 O.2   108  ALA108     -0.2867
     33  CB        11.1370   27.5390  -10.9430 C.3   108  ALA108      0.0290
     34  N         16.7400   19.9930  -13.5280 N.3   428  SER428     -0.1217
     35  CA        15.3280   20.2040  -13.2050 C.3   428  SER428      0.1889
     36  C         14.7060   19.1960  -12.2420 C.2   428  SER428      0.2288
     37  O         13.4910   19.0190  -12.2260 O.2   428  SER428     -0.2866
     38  CB        14.4990   20.2470  -14.4910 C.3   428  SER428      0.2089
     39  OG        14.9210   21.3040  -15.3340 O.3   428  SER428     -0.2183
     40  N         11.2650   12.9270  -10.6490 N.3   605  TYR605     -0.1227
     41  CA        11.3460   13.9200  -11.7080 C.3   605  TYR605      0.1736
     42  C         10.1090   14.7500  -12.0510 C.2   605  TYR605      0.2595
     43  O         10.2450   15.7930  -12.6920 O.2   605  TYR605     -0.2718
     44  CB        11.8310   13.2420  -12.9980 C.3   605  TYR605      0.0548
     45  CG        13.2410   12.6950  -12.9470 C.ar  605  TYR605     -0.0200
     46  CD1       13.5120   11.4500  -12.3800 C.ar  605  TYR605     -0.0009
     47  CD2       14.3050   13.4150  -13.4930 C.ar  605  TYR605     -0.0009
     48  CE1       14.8140   10.9290  -12.3640 C.ar  605  TYR605      0.0417
     49  CE2       15.6070   12.9090  -13.4810 C.ar  605  TYR605      0.0417
     50  CZ        15.8550   11.6690  -12.9170 C.ar  605  TYR605      0.1957
     51  OH        17.1420   11.1760  -12.9060 O.3   605  TYR605     -0.2866
     52  N          8.9160   14.3150  -11.6430 N.am  606  CYS606     -0.1970
     53  CA         7.6950   15.0440  -11.9980 C.3   606  CYS606      0.1712
     54  C          6.8200   15.5560  -10.8660 C.2   606  CYS606      0.2296
     55  O          5.9810   16.4320  -11.0840 O.2   606  CYS606     -0.2864
     56  CB         6.8020   14.1620  -12.8690 C.3   606  CYS606      0.0983
     57  SG         7.6810   12.9440  -13.8880 S.3   606  CYS606     -0.0798
     58  N          7.1440   17.5810   -8.2030 N.3   608  GLN608     -0.1231
     59  CA         7.0700   18.9860   -7.8080 C.3   608  GLN608      0.1698
     60  C          6.1440   19.8320   -8.6710 C.2   608  GLN608      0.2592
     61  O          5.7020   20.8860   -8.2290 O.2   608  GLN608     -0.2718
     62  CB         8.4640   19.6440   -7.7530 C.3   608  GLN608      0.0381
     63  CG         9.1400   19.9280   -9.0920 C.3   608  GLN608      0.0905
     64  CD        10.0580   18.8090   -9.5430 C.2   608  GLN608      0.2608
     65  OE1       10.9140   19.0070  -10.4060 O.2   608  GLN608     -0.2717
     66  NE2        9.8780   17.6230   -8.9750 N.am  608  GLN608     -0.0878
     67  N          5.8300   19.3770   -9.8840 N.am  609  CYS609     -0.1956
     68  CA         4.9500   20.1500  -10.7570 C.3   609  CYS609      0.1843
     69  C          3.6150   19.4700  -11.0620 C.2   609  CYS609      0.2625
     70  O          2.5710   20.1390  -11.1110 O.2   609  CYS609     -0.2714
     71  CB         5.6540   20.5030  -12.0770 C.3   609  CYS609      0.0997
     72  SG         7.1140   21.6110  -11.9670 S.3   609  CYS609     -0.0797
     73  N          3.6220   18.1550  -11.2600 N.am  610  HIS610     -0.1973
     74  CA         2.3670   17.4750  -11.5720 C.3   610  HIS610      0.1656
     75  C          1.7000   16.8110  -10.3650 C.2   610  HIS610      0.2291
     76  O          0.6280   16.2160  -10.4820 O.2   610  HIS610     -0.2864
     77  CB         2.5710   16.4820  -12.7300 C.3   610  HIS610      0.0771
     78  CG         2.7880   17.1510  -14.0580 C.ar  610  HIS610      0.0820
     79  ND1        1.8060   17.9000  -14.6410 N.ar  610  HIS610     -0.2267
     80  CD2        3.9790   17.0210  -14.6710 C.ar  610  HIS610      0.1154
     81  CE1        2.4460   18.3170  -15.7910 C.ar  610  HIS610      0.1986
     82  NE2        3.7730   17.7890  -15.8260 N.ar  610  HIS610     -0.2212
     83  N         -1.4180   22.9190  -12.4530 N.3   620  LEU620     -0.1231
     84  CA        -0.6460   22.3980  -13.5690 C.3   620  LEU620      0.1678
     85  C         -1.3690   21.1470  -14.0550 C.2   620  LEU620      0.2434
     86  O         -2.1500   20.5470  -13.3180 O.2   620  LEU620     -0.2733
     87  CB         0.7820   22.0790  -13.1270 C.3   620  LEU620      0.0284
     88  CG         1.8100   23.1890  -13.3730 C.3   620  LEU620      0.0019
     89  CD1        1.1580   24.5610  -13.3950 C.3   620  LEU620      0.0001
     90  CD2        2.8590   23.1090  -12.2940 C.3   620  LEU620      0.0001
     91  N         -1.1250   20.7400  -15.3060 N.am  621  PRO621     -0.2718
     92  CA        -1.7850   19.5540  -15.8570 C.3   621  PRO621      0.1535
     93  C         -1.7910   18.3100  -14.9750 C.2   621  PRO621      0.2599
     94  O         -0.8160   18.0150  -14.2870 O.2   621  PRO621     -0.2715
     95  CB        -1.0300   19.3230  -17.1620 C.3   621  PRO621      0.0310
     96  CG        -0.6790   20.7220  -17.5840 C.3   621  PRO621      0.0237
     97  CD        -0.2010   21.3330  -16.2880 C.3   621  PRO621      0.0939
     98  N         -2.9080   17.5890  -14.9890 N.am  622  ASP622     -0.1958
     99  CA        -3.0150   16.3440  -14.2350 C.3   622  ASP622      0.1840
    100  C         -2.7060   15.2820  -15.2860 C.2   622  ASP622      0.2621
    101  O         -3.4180   15.1640  -16.2840 O.2   622  ASP622     -0.2715
    102  CB        -4.4340   16.1480  -13.6910 C.3   622  ASP622      0.1450
    103  CG        -4.5130   15.0300  -12.6680 C.2   622  ASP622      0.3671
    104  OD1       -4.7950   15.3200  -11.4840 O.co2 622  ASP622     -0.2456
    105  OD2       -4.2840   13.8570  -13.0410 O.co2 622  ASP622     -0.2456
    106  N         -1.6410   14.5240  -15.0680 N.am  623  LEU623     -0.1977
    107  CA        -1.2230   13.5070  -16.0170 C.3   623  LEU623      0.1596
    108  C         -2.1240   12.2780  -16.1160 C.2   623  LEU623      0.2287
    109  O         -1.8780   11.3930  -16.9320 O.2   623  LEU623     -0.2864
    110  CB         0.2170   13.0810  -15.7060 C.3   623  LEU623      0.0297
    111  CG         1.2150   14.2400  -15.8080 C.3   623  LEU623      0.0022
    112  CD1        2.6340   13.7210  -15.6910 C.3   623  LEU623      0.0001
    113  CD2        1.0200   14.9620  -17.1310 C.3   623  LEU623      0.0001
    114  N         -5.3780   12.6630  -16.6640 N.3   625  LYS625     -0.1231
    115  CA        -6.4980   13.1010  -17.4870 C.3   625  LYS625      0.1693
    116  C         -6.0480   13.5040  -18.8840 C.2   625  LYS625      0.2591
    117  O         -6.6190   14.4100  -19.4930 O.2   625  LYS625     -0.2718
    118  CB        -7.1980   14.2910  -16.8220 C.3   625  LYS625      0.0285
    119  CG        -7.5110   14.1080  -15.3370 C.3   625  LYS625      0.0035
    120  CD        -8.1180   15.3780  -14.7620 C.3   625  LYS625      0.0206
    121  CE        -8.1530   15.3610  -13.2390 C.3   625  LYS625      0.1093
    122  NZ        -9.0820   14.3470  -12.7000 N.3   625  LYS625     -0.1314
    123  N         -5.0180   12.8330  -19.3850 N.am  626  LEU626     -0.1980
    124  CA        -4.4890   13.1180  -20.7120 C.3   626  LEU626      0.1596
    125  C         -5.4290   12.6500  -21.8170 C.2   626  LEU626      0.2287
    126  O         -5.9900   11.5580  -21.7450 O.2   626  LEU626     -0.2864
    127  CB        -3.1250   12.4420  -20.8850 C.3   626  LEU626      0.0297
    128  CG        -1.9660   13.0010  -20.0560 C.3   626  LEU626      0.0022
    129  CD1       -0.7640   12.0980  -20.1780 C.3   626  LEU626      0.0001
    130  CD2       -1.6240   14.4010  -20.5320 C.3   626  LEU626      0.0001
    131  N         -2.6580   13.4200  -26.5570 N.3   630  LYS630     -0.1245
    132  CA        -1.4760   13.7080  -25.7580 C.3   630  LYS630      0.1561
    133  C         -0.7190   12.4190  -25.4890 C.2   630  LYS630      0.2260
    134  O          0.5080   12.4070  -25.4770 O.2   630  LYS630     -0.2867
    135  CB        -1.8590   14.3920  -24.4400 C.3   630  LYS630      0.0271
    136  CG        -2.4860   15.7770  -24.6220 C.3   630  LYS630      0.0035
    137  CD        -1.5230   16.7350  -25.3100 C.3   630  LYS630      0.0206
    138  CE        -2.1790   18.0620  -25.6640 C.3   630  LYS630      0.1093
    139  NZ        -2.6950   18.7840  -24.4710 N.3   630  LYS630     -0.1314
    140  N          3.4260   11.5010  -26.1900 N.3   634  PHE634     -0.1241
    141  CA         4.0120   11.5080  -24.8510 C.3   634  PHE634      0.1605
    142  C          5.5440   11.5680  -24.8690 C.2   634  PHE634      0.2264
    143  O          6.1560   12.2210  -24.0200 O.2   634  PHE634     -0.2867
    144  CB         3.5280   10.2720  -24.0780 C.3   634  PHE634      0.0534
    145  CG         3.9240   10.2530  -22.6240 C.ar  634  PHE634     -0.0203
    146  CD1        5.1040    9.6440  -22.2190 C.ar  634  PHE634     -0.0042
    147  CD2        3.1020   10.8300  -21.6590 C.ar  634  PHE634     -0.0042
    148  CE1        5.4640    9.6040  -20.8750 C.ar  634  PHE634     -0.0003
    149  CE2        3.4510   10.7970  -20.3150 C.ar  634  PHE634     -0.0003
    150  CZ         4.6390   10.1810  -19.9190 C.ar  634  PHE634     -0.0000
    151  N          6.6810   15.0550  -26.1180 N.3   637  ILE637     -0.1231
    152  CA         6.4360   16.0630  -25.0920 C.3   637  ILE637      0.1692
    153  C          7.5120   15.9670  -24.0250 C.2   637  ILE637      0.2591
    154  O          8.1170   16.9660  -23.6470 O.2   637  ILE637     -0.2718
    155  CB         5.0400   15.8770  -24.4320 C.3   637  ILE637      0.0266
    156  CG1        3.9400   16.1620  -25.4640 C.3   637  ILE637      0.0019
    157  CG2        4.8940   16.8140  -23.2270 C.3   637  ILE637      0.0020
    158  CD1        2.5250   15.8880  -24.9780 C.3   637  ILE637      0.0001
    159  N          7.7530   14.7530  -23.5490 N.am  638  LEU638     -0.1980
    160  CA         8.7600   14.5340  -22.5310 C.3   638  LEU638      0.1596
    161  C         10.1440   14.9500  -23.0210 C.2   638  LEU638      0.2287
    162  O         10.9950   15.3440  -22.2240 O.2   638  LEU638     -0.2864
    163  CB         8.7720   13.0630  -22.1210 C.3   638  LEU638      0.0297
    164  CG         7.9900   12.7130  -20.8550 C.3   638  LEU638      0.0022
    165  CD1        8.7130   13.3010  -19.6540 C.3   638  LEU638      0.0001
    166  CD2        6.5590   13.2350  -20.9550 C.3   638  LEU638      0.0001
    167  N          7.2250   20.5350  -25.3840 N.3   642  ARG642     -0.1245
    168  CA         6.3740   21.5040  -24.6990 C.3   642  ARG642      0.1563
    169  C          7.1470   22.5220  -23.8750 C.2   642  ARG642      0.2260
    170  O          6.5800   23.1780  -23.0010 O.2   642  ARG642     -0.2867
    171  CB         5.3530   20.7910  -23.8010 C.3   642  ARG642      0.0307
    172  CG         4.2250   20.0830  -24.5550 C.3   642  ARG642      0.0489
    173  CD         3.3030   21.0580  -25.2920 C.3   642  ARG642      0.2205
    174  NE         2.3610   21.7430  -24.4040 N.pl3 642  ARG642     -0.0865
    175  CZ         1.3740   21.1370  -23.7510 C.cat 642  ARG642      0.5346
    176  NH1        1.1920   19.8290  -23.8850 N.pl3 642  ARG642      0.1354
    177  NH2        0.5680   21.8330  -22.9600 N.pl3 642  ARG642      0.1354
    178  N          5.9390   26.0220  -22.9830 N.3   645  ASP645     -0.1225
    179  CA         4.9210   26.1420  -21.9460 C.3   645  ASP645      0.1805
    180  C          5.4740   25.8810  -20.5370 C.2   645  ASP645      0.2598
    181  O          4.7070   25.7540  -19.5800 O.2   645  ASP645     -0.2718
    182  CB         3.7600   25.1800  -22.2280 C.3   645  ASP645      0.1424
    183  CG         3.0810   25.4540  -23.5600 C.2   645  ASP645      0.3668
    184  OD1        2.8140   26.6340  -23.8640 O.co2 645  ASP645     -0.2456
    185  OD2        2.8030   24.4890  -24.3020 O.co2 645  ASP645     -0.2456
    186  N          6.7980   25.7970  -20.4060 N.am  646  GLY646     -0.1942
    187  CA         7.3910   25.5520  -19.0990 C.3   646  GLY646      0.2014
    188  C          7.5540   24.0790  -18.7540 C.2   646  GLY646      0.2639
    189  O          7.9550   23.7310  -17.6400 O.2   646  GLY646     -0.2714
    190  N          7.2280   23.2080  -19.7050 N.am  647  MET647     -0.1963
    191  CA         7.3520   21.7680  -19.5150 C.3   647  MET647      0.1722
    192  C          8.7630   21.4060  -19.9510 C.2   647  MET647      0.2458
    193  O          9.0270   21.2230  -21.1370 O.2   647  MET647     -0.2730
    194  CB         6.3130   21.0470  -20.3780 C.3   647  MET647      0.0427
    195  CG         6.4820   19.5390  -20.5150 C.3   647  MET647      0.0599
    196  SD         6.7080   18.6610  -18.9730 S.3   647  MET647     -0.1393
    197  CE         7.6700   17.2810  -19.5260 C.3   647  MET647      0.0692
    198  N          9.6890   21.2880  -18.9890 N.am  648  PRO648     -0.2727
    199  CA        11.0780   20.9570  -19.3060 C.3   648  PRO648      0.1402
    200  C         11.2780   19.7200  -20.1650 C.2   648  PRO648      0.2269
    201  O         10.4120   18.8460  -20.2420 O.2   648  PRO648     -0.2865
    202  CB        11.7300   20.8320  -17.9260 C.3   648  PRO648      0.0296
    203  CG        10.6130   20.3880  -17.0600 C.3   648  PRO648      0.0237
    204  CD         9.4590   21.2350  -17.5350 C.3   648  PRO648      0.0939
    205  N         13.2050   16.2500  -21.0180 N.3   650  PHE650     -0.1241
    206  CA        13.8510   15.1910  -20.2590 C.3   650  PHE650      0.1605
    207  C         14.6930   14.3090  -21.1690 C.2   650  PHE650      0.2264
    208  O         15.0650   13.1880  -20.8110 O.2   650  PHE650     -0.2867
    209  CB        12.8060   14.3720  -19.5010 C.3   650  PHE650      0.0534
    210  CG        12.1510   15.1380  -18.3860 C.ar  650  PHE650     -0.0203
    211  CD1       11.1560   16.0720  -18.6570 C.ar  650  PHE650     -0.0042
    212  CD2       12.5790   14.9780  -17.0710 C.ar  650  PHE650     -0.0042
    213  CE1       10.5980   16.8400  -17.6400 C.ar  650  PHE650     -0.0003
    214  CE2       12.0260   15.7430  -16.0430 C.ar  650  PHE650     -0.0003
    215  CZ        11.0330   16.6760  -16.3290 C.ar  650  PHE650     -0.0000
    216  N         16.3420   10.7280  -19.5450 N.3   654  PHE654     -0.1241
    217  CA        15.6430    9.4590  -19.7260 C.3   654  PHE654      0.1605
    218  C         15.9090    8.8000  -21.0700 C.2   654  PHE654      0.2264
    219  O         16.2390    9.4730  -22.0490 O.2   654  PHE654     -0.2867
    220  CB        14.1290    9.6700  -19.6080 C.3   654  PHE654      0.0534
    221  CG        13.6670   10.1250  -18.2490 C.ar  654  PHE654     -0.0203
    222  CD1       12.4870   10.8500  -18.1210 C.ar  654  PHE654     -0.0042
    223  CD2       14.3790    9.8040  -17.1010 C.ar  654  PHE654     -0.0042
    224  CE1       12.0290   11.2480  -16.8730 C.ar  654  PHE654     -0.0003
    225  CE2       13.9220   10.2010  -15.8450 C.ar  654  PHE654     -0.0003
    226  CZ        12.7480   10.9220  -15.7330 C.ar  654  PHE654     -0.0000
    227  N          7.1770    5.5240  -17.2820 N.3   662  ILE662     -0.1245
    228  CA         6.4390    6.5720  -16.5970 C.3   662  ILE662      0.1561
    229  C          5.0280    6.5830  -17.1700 C.2   662  ILE662      0.2260
    230  O          4.0460    6.6370  -16.4320 O.2   662  ILE662     -0.2867
    231  CB         7.0950    7.9510  -16.8190 C.3   662  ILE662      0.0252
    232  CG1        8.5020    7.9540  -16.2160 C.3   662  ILE662      0.0019
    233  CG2        6.2440    9.0370  -16.1990 C.3   662  ILE662      0.0019
    234  CD1        9.2530    9.2450  -16.4360 C.3   662  ILE662      0.0001
@<TRIPOS>BOND
     1   131   132    1
     2   140   141    1
     3   151   152    1
     4   132   133    1
     5   132   135    1
     6   138   137    1
     7   138   139    1
     8   133   134    2
     9   156   158    1
    10   156   155    1
    11   167   168    1
    12   137   136    1
    13   173   172    1
    14   173   174    1
    15   152   155    1
    16   152   153    1
    17   142   141    1
    18   142   143    2
    19   141   144    1
    20   168   169    1
    21   168   171    1
    22   136   135    1
    23   172   171    1
    24   155   157    1
    25   174   175    2
    26   185   183   ar
    27   144   145    1
    28   153   154    2
    29   153   159   am
    30   176   175    1
    31   169   170    2
    32   184   183   ar
    33   175   177    1
    34   183   182    1
    35   159   160    1
    36   161   160    1
    37   161   162    2
    38   178   179    1
    39   145   146   ar
    40   145   147   ar
    41   160   163    1
    42   182   179    1
    43   146   148   ar
    44   163   164    1
    45   219   218    2
    46   179   180    1
    47   125   126    2
    48   125   124    1
    49   147   149   ar
    50   207   208    2
    51   207   206    1
    52   193   192    2
    53   218   217    1
    54   205   206    1
    55   166   164    1
    56   127   124    1
    57   127   128    1
    58   148   150   ar
    59   164   165    1
    60   124   123    1
    61   180   186   am
    62   180   181    2
    63   130   128    1
    64   195   194    1
    65   195   196    1
    66   186   187    1
    67   194   191    1
    68   149   150   ar
    69   206   209    1
    70   201   200    2
    71   129   128    1
    72   200   199    1
    73   192   191    1
    74   192   198   am
    75   217   220    1
    76   217   216    1
    77   190   191    1
    78   190   188   am
    79   220   221    1
    80   197   196    1
    81   209   210    1
    82   117   116    2
    83   123   116   am
    84   199   198    1
    85   199   202    1
    86     8     6    1
    87   187   188    1
    88   198   204    1
    89   116   115    1
    90   188   189    2
    91   211   210   ar
    92   211   213   ar
    93     6     7    1
    94     6     5    1
    95   210   212   ar
    96   221   222   ar
    97   221   223   ar
    98   222   224   ar
    99   202   203    1
   100   213   215   ar
   101    96    95    1
   102    96    97    1
   103   204   203    1
   104   115   118    1
   105   115   114    1
   106     1     2    1
   107   227   228    1
   108   229   228    1
   109   229   230    2
   110    95    92    1
   111     2     5    1
   112     2     3    1
   113    24    21    1
   114   113   111    1
   115   223   225   ar
   116    20    21    1
   117   212   214   ar
   118   109   108    2
   119   224   226   ar
   120   118   119    1
   121   231   228    1
   122   231   232    1
   123   231   233    1
   124   234   232    1
   125   215   214   ar
   126    97    91    1
   127   101   100    2
   128    21    22    1
   129   108   107    1
   130   107   110    1
   131   107   106    1
   132    92    91    1
   133    92    93    1
   134   225   226   ar
   135     3     4    2
   136    82    81   ar
   137    82    80   ar
   138   111   110    1
   139   111   112    1
   140    81    79   ar
   141    18    17    1
   142    25    22   am
   143    25    26    1
   144   119   120    1
   145    39    38    1
   146    91    85   am
   147   100   106   am
   148   100    99    1
   149    22    23    2
   150    98    93   am
   151    98    99    1
   152    93    94    2
   153    15    14    1
   154    15    16    1
   155   120   121    1
   156    80    78   ar
   157    79    78   ar
   158    38    35    1
   159    26    27    1
   160    17    16    2
   161    17    19    1
   162    99   102    1
   163    14    13    1
   164    78    77    1
   165    85    84    1
   166    85    86    2
   167    57    56    1
   168   102   103    1
   169    84    87    1
   170    84    83    1
   171    34    35    1
   172    47    49   ar
   173    47    45   ar
   174    49    50   ar
   175    89    88    1
   176    88    87    1
   177    88    90    1
   178    27    28    2
   179   121   122    1
   180    35    36    1
   181     9    10    1
   182   105   103   ar
   183    44    45    1
   184    44    41    1
   185    45    46   ar
   186    13    10    1
   187    50    51    1
   188    50    48   ar
   189    56    53    1
   190    77    74    1
   191    43    42    2
   192   103   104   ar
   193    46    48   ar
   194    36    37    2
   195    10    11    1
   196    71    72    1
   197    71    68    1
   198    42    41    1
   199    42    52   am
   200    53    52    1
   201    53    54    1
   202    41    40    1
   203    74    73    1
   204    74    75    1
   205    29    30    1
   206    73    69   am
   207    70    69    2
   208    55    54    2
   209    69    68    1
   210    11    12    2
   211    33    30    1
   212    68    67    1
   213    76    75    2
   214    65    64    2
   215    30    31    1
   216    32    31    2
   217    67    60   am
   218    64    63    1
   219    64    66   am
   220    63    62    1
   221    60    61    2
   222    60    59    1
   223    58    59    1
   224    59    62    1
