@<TRIPOS>MOLECULE
tmp/1yivA01.pdb
 131 123 0 0 0
SMALL
GASTEIGER

@<TRIPOS>ATOM
      1  N         -0.4760   25.3470   16.8070 N.3    16  PHE16      -0.1241
      2  CA        -1.5660   24.9340   15.9150 C.3    16  PHE16       0.1605
      3  C         -2.1830   26.1530   15.2400 C.2    16  PHE16       0.2264
      4  O         -2.5150   26.1100   14.0600 O.2    16  PHE16      -0.2867
      5  CB        -2.6340   24.1240   16.7010 C.3    16  PHE16       0.0534
      6  CG        -3.7140   23.5040   15.8520 C.ar   16  PHE16      -0.0203
      7  CD1       -3.3970   22.6970   14.7760 C.ar   16  PHE16      -0.0042
      8  CD2       -5.0500   23.6500   16.1800 C.ar   16  PHE16      -0.0042
      9  CE1       -4.3620   22.1200   14.0160 C.ar   16  PHE16      -0.0003
     10  CE2       -6.0140   23.0550   15.4240 C.ar   16  PHE16      -0.0003
     11  CZ        -5.6490   22.2540   14.3340 C.ar   16  PHE16      -0.0000
     12  N         -0.0280   27.0170   12.5250 N.3    19  TYR19      -0.1227
     13  CA        -0.1120   25.9490   11.5010 C.3    19  TYR19       0.1736
     14  C         -1.3200   26.2340   10.6150 C.2    19  TYR19       0.2595
     15  O         -1.1530   26.2960    9.4080 O.2    19  TYR19      -0.2718
     16  CB        -0.1200   24.5380   12.1110 C.3    19  TYR19       0.0548
     17  CG        -0.3000   23.4160   11.0830 C.ar   19  TYR19      -0.0200
     18  CD1        0.7100   23.0730   10.2140 C.ar   19  TYR19      -0.0009
     19  CD2       -1.4870   22.7170   10.9960 C.ar   19  TYR19      -0.0009
     20  CE1        0.5260   22.0570    9.2600 C.ar   19  TYR19       0.0417
     21  CE2       -1.6950   21.7220   10.0470 C.ar   19  TYR19       0.0417
     22  CZ        -0.6710   21.3890    9.1720 C.ar   19  TYR19       0.1957
     23  OH        -0.8730   20.4050    8.2190 O.3    19  TYR19      -0.2866
     24  N         -2.5060   26.4340   11.2000 N.am   20  MET20      -0.1979
     25  CA        -3.7230   26.7150   10.4140 C.3    20  MET20       0.1605
     26  C         -3.5420   28.0200    9.5980 C.2    20  MET20       0.2287
     27  O         -4.0020   28.1240    8.4710 O.2    20  MET20      -0.2864
     28  CB        -4.9730   26.8490   11.3040 C.3    20  MET20       0.0413
     29  CG        -5.4690   25.6010   11.9770 C.3    20  MET20       0.0598
     30  SD        -7.0040   25.8540   12.9500 S.3    20  MET20      -0.1393
     31  CE        -6.3650   26.5910   14.4330 C.3    20  MET20       0.0692
     32  N         -1.8050   27.3120    6.4700 N.3    23  LEU23      -0.1245
     33  CA        -2.6660   26.6340    5.5140 C.3    23  LEU23       0.1561
     34  C         -3.7240   27.5320    4.9140 C.2    23  LEU23       0.2260
     35  O         -4.5150   27.0670    4.1040 O.2    23  LEU23      -0.2867
     36  CB        -3.4120   25.5020    6.1850 C.3    23  LEU23       0.0270
     37  CG        -2.6410   24.3580    6.7660 C.3    23  LEU23       0.0019
     38  CD1       -3.5960   23.5510    7.6240 C.3    23  LEU23       0.0001
     39  CD2       -2.0280   23.5240    5.6890 C.3    23  LEU23       0.0001
     40  N         -6.2820   29.0570    6.6870 N.3    25  VAL25      -0.1245
     41  CA        -7.5640   29.0320    7.4310 C.3    25  VAL25       0.1561
     42  C         -7.8840   30.4150    7.9990 C.2    25  VAL25       0.2260
     43  O         -7.0300   31.0170    8.6330 O.2    25  VAL25      -0.2867
     44  CB        -7.4960   28.0820    8.6300 C.3    25  VAL25       0.0252
     45  CG1       -8.7250   28.1920    9.4690 C.3    25  VAL25       0.0019
     46  CG2       -7.2680   26.6400    8.1640 C.3    25  VAL25       0.0019
     47  N        -12.7640   30.4120   11.7040 N.3    29  THR29      -0.1218
     48  CA       -12.5300   28.9570   11.7760 C.3    29  THR29       0.1862
     49  C        -11.3710   28.6070   12.7180 C.2    29  THR29       0.2287
     50  O        -11.4360   27.5960   13.4510 O.2    29  THR29      -0.2866
     51  CB       -12.2650   28.3830   10.3910 C.3    29  THR29       0.1770
     52  OG1      -13.4020   28.6270    9.5780 O.3    29  THR29      -0.2211
     53  CG2      -12.0260   26.8970   10.4410 C.3    29  THR29       0.0375
     54  N        -12.3300   28.2810   16.4180 N.3    32  LEU32      -0.1231
     55  CA       -12.9180   26.9860   16.7420 C.3    32  LEU32       0.1693
     56  C        -11.8610   25.8950   16.7930 C.2    32  LEU32       0.2592
     57  O        -11.8730   25.0180   17.6570 O.2    32  LEU32      -0.2718
     58  CB       -13.9500   26.6250   15.6950 C.3    32  LEU32       0.0284
     59  CG       -15.0740   27.6400   15.5580 C.3    32  LEU32       0.0019
     60  CD1      -16.0850   27.0950   14.5360 C.3    32  LEU32       0.0001
     61  CD2      -15.7000   27.8870   16.9190 C.3    32  LEU32       0.0001
     62  N        -10.9340   25.9560   15.8550 N.am   33  GLY33      -0.1957
     63  CA        -9.8900   24.9440   15.7600 C.3    33  GLY33       0.1869
     64  C         -9.0020   24.9560   16.9830 C.2    33  GLY33       0.2309
     65  O         -8.4770   23.9330   17.3810 O.2    33  GLY33      -0.2863
     66  N        -14.8270   16.0220   17.0330 N.3    55  SER55      -0.1217
     67  CA       -14.7810   17.2220   17.9220 C.3    55  SER55       0.1889
     68  C        -16.1850   17.8540   18.0740 C.2    55  SER55       0.2288
     69  O        -17.0950   17.4710   17.3850 O.2    55  SER55      -0.2866
     70  CB       -13.7700   18.2570   17.3930 C.3    55  SER55       0.2089
     71  OG       -14.2970   19.0540   16.3290 O.3    55  SER55      -0.2183
     72  N        -17.0220   20.7630   17.0730 N.3    57  PHE57      -0.1227
     73  CA       -17.2340   21.7130   15.9660 C.3    57  PHE57       0.1736
     74  C        -17.2090   21.1100   14.5630 C.2    57  PHE57       0.2595
     75  O        -17.7760   21.6950   13.6420 O.2    57  PHE57      -0.2718
     76  CB       -16.1850   22.8200   16.0370 C.3    57  PHE57       0.0547
     77  CG       -16.0050   23.3840   17.4060 C.ar   57  PHE57      -0.0202
     78  CD1      -16.9440   24.2770   17.9300 C.ar   57  PHE57      -0.0042
     79  CD2      -14.9090   23.0500   18.1680 C.ar   57  PHE57      -0.0042
     80  CE1      -16.7920   24.8230   19.1910 C.ar   57  PHE57      -0.0003
     81  CE2      -14.7540   23.5790   19.4230 C.ar   57  PHE57      -0.0003
     82  CZ       -15.7010   24.4740   19.9410 C.ar   57  PHE57      -0.0000
     83  N        -16.5180   19.9760   14.4030 N.am   58  LYS58      -0.1980
     84  CA       -16.4300   19.2690   13.1110 C.3    58  LYS58       0.1596
     85  C        -15.9350   17.8380   13.3130 C.2    58  LYS58       0.2287
     86  O        -14.9790   17.5860   14.0550 O.2    58  LYS58      -0.2864
     87  CB       -15.4840   20.0060   12.1490 C.3    58  LYS58       0.0298
     88  CG       -15.4290   19.4440   10.7140 C.3    58  LYS58       0.0038
     89  CD       -16.2950   20.2820    9.7600 C.3    58  LYS58       0.0206
     90  CE       -16.5560   19.5750    8.4240 C.3    58  LYS58       0.1093
     91  NZ       -15.4450   19.6800    7.4710 N.3    58  LYS58      -0.1314
     92  N        -10.8650   18.4740    3.4790 N.3    74  THR74      -0.1203
     93  CA       -10.3360   18.6420    4.8520 C.3    74  THR74       0.1994
     94  C        -11.2940   19.3780    5.7850 C.2    74  THR74       0.2618
     95  O        -12.2630   19.9090    5.3310 O.2    74  THR74      -0.2717
     96  CB        -9.0090   19.4020    4.8210 C.3    74  THR74       0.1784
     97  OG1       -9.2500   20.7750    4.4400 O.3    74  THR74      -0.2211
     98  CG2       -8.0600   18.7060    3.8290 C.3    74  THR74       0.0376
     99  N        -10.9950   19.4060    7.0820 N.am   75  ALA75      -0.1965
    100  CA       -11.8740   20.0380    8.1010 C.3    75  ALA75       0.1728
    101  C        -12.1320   21.5120    7.8300 C.2    75  ALA75       0.2616
    102  O        -13.1990   22.0370    8.0940 O.2    75  ALA75      -0.2715
    103  CB       -11.2700   19.8620    9.4540 C.3    75  ALA75       0.0334
    104  N        -11.1190   22.1580    7.2790 N.am   76  ASP76      -0.1971
    105  CA       -11.1670   23.5570    6.8990 C.3    76  ASP76       0.1709
    106  C        -11.5990   23.7000    5.4560 C.2    76  ASP76       0.2293
    107  O        -11.7060   24.8070    4.9410 O.2    76  ASP76      -0.2864
    108  CB        -9.8040   24.2100    7.1400 C.3    76  ASP76       0.1436
    109  CG        -8.6770   23.5440    6.3780 C.2    76  ASP76       0.3671
    110  OD1       -8.4470   22.2960    6.5250 O.co2  76  ASP76      -0.2456
    111  OD2       -8.0170   24.3000    5.6200 O.co2  76  ASP76      -0.2456
    112  N        -10.4300   22.4070    2.4010 N.3    78  ARG78      -0.1245
    113  CA        -9.5870   22.2500    1.2120 C.3    78  ARG78       0.1563
    114  C         -9.9190   20.9500    0.4920 C.2    78  ARG78       0.2260
    115  O        -10.2170   19.9480    1.1140 O.2    78  ARG78      -0.2867
    116  CB        -8.1080   22.2910    1.5810 C.3    78  ARG78       0.0307
    117  CG        -7.6870   23.6500    2.1380 C.3    78  ARG78       0.0489
    118  CD        -6.2900   23.5910    2.6670 C.3    78  ARG78       0.2205
    119  NE        -6.2100   22.8810    3.9550 N.pl3  78  ARG78      -0.0865
    120  CZ        -5.4560   21.8270    4.2370 C.cat  78  ARG78       0.5346
    121  NH1       -4.6600   21.2730    3.3280 N.pl3  78  ARG78       0.1354
    122  NH2       -5.5270   21.2980    5.4590 N.pl3  78  ARG78       0.1354
    123  N         -0.2530   15.7330    1.9010 N.3    95  GLN95      -0.1245
    124  CA        -1.5560   16.1950    1.5200 C.3    95  GLN95       0.1566
    125  C         -1.3390   17.3870    0.5860 C.2    95  GLN95       0.2260
    126  O         -0.6160   18.3400    0.9600 O.2    95  GLN95      -0.2867
    127  CB        -2.2760   16.6180    2.8000 C.3    95  GLN95       0.0367
    128  CG        -3.6590   17.2290    2.6590 C.3    95  GLN95       0.0905
    129  CD        -4.2520   17.5260    4.0630 C.2    95  GLN95       0.2608
    130  OE1       -5.0420   16.7290    4.6390 O.2    95  GLN95      -0.2717
    131  NE2       -3.8460   18.6360    4.6210 N.am   95  GLN95      -0.0878
@<TRIPOS>BOND
     1   114   115    2
     2   114   113    1
     3   125   126    2
     4   125   124    1
     5   113   116    1
     6   113   112    1
     7   124   123    1
     8   124   127    1
     9   116   117    1
    10   117   118    1
    11   128   127    1
    12   128   129    1
    13   118   119    1
    14   121   120    1
    15    92    93    1
    16    98    96    1
    17   119   120    2
    18   129   131   am
    19   129   130    2
    20    35    34    2
    21   120   122    1
    22    97    96    1
    23    96    93    1
    24    93    94    1
    25    34    33    1
    26   107   106    2
    27    95    94    2
    28   106   105    1
    29    33    36    1
    30    33    32    1
    31   111   109   ar
    32    39    37    1
    33    94    99   am
    34    36    37    1
    35   109   110   ar
    36   109   108    1
    37    40    41    1
    38    37    38    1
    39   105   108    1
    40   105   104    1
    41    99   100    1
    42   104   101   am
    43    41    42    1
    44    41    44    1
    45    91    90    1
    46   101   102    2
    47   101   100    1
    48    42    43    2
    49   100   103    1
    50    46    44    1
    51    23    22    1
    52    90    89    1
    53    27    26    2
    54    44    45    1
    55    22    20   ar
    56    22    21   ar
    57    20    18   ar
    58    15    14    2
    59    52    51    1
    60    26    25    1
    61    89    88    1
    62    21    19   ar
    63    18    17   ar
    64    51    53    1
    65    51    48    1
    66    25    24    1
    67    25    28    1
    68    14    24   am
    69    14    13    1
    70    88    87    1
    71    19    17   ar
    72    17    16    1
    73    28    29    1
    74    13    16    1
    75    13    12    1
    76    47    48    1
    77    48    49    1
    78    29    30    1
    79    87    84    1
    80    49    50    2
    81    30    31    1
    82    84    85    1
    83    84    83    1
    84    85    86    2
    85    75    74    2
    86     9    11   ar
    87     9     7   ar
    88     4     3    2
    89    11    10   ar
    90    83    74   am
    91    60    59    1
    92    74    73    1
    93     7     6   ar
    94     3     2    1
    95    10     8   ar
    96    59    58    1
    97    59    61    1
    98    58    55    1
    99    63    62    1
   100    63    64    1
   101     6     8   ar
   102     6     5    1
   103    62    56   am
   104     2     5    1
   105     2     1    1
   106    73    76    1
   107    73    72    1
   108    76    77    1
   109    71    70    1
   110    54    55    1
   111    55    56    1
   112    56    57    2
   113    64    65    2
   114    66    67    1
   115    69    68    2
   116    70    67    1
   117    77    78   ar
   118    77    79   ar
   119    67    68    1
   120    78    80   ar
   121    79    81   ar
   122    80    82   ar
   123    81    82   ar
