@<TRIPOS>MOLECULE
tmp/1yivA00.pdb
 146 134 0 0 0
SMALL
GASTEIGER

@<TRIPOS>ATOM
      1  N         -0.4760   25.3470   16.8070 N.3    16  PHE16      -0.1241
      2  CA        -1.5660   24.9340   15.9150 C.3    16  PHE16       0.1605
      3  C         -2.1830   26.1530   15.2400 C.2    16  PHE16       0.2264
      4  O         -2.5150   26.1100   14.0600 O.2    16  PHE16      -0.2867
      5  CB        -2.6340   24.1240   16.7010 C.3    16  PHE16       0.0534
      6  CG        -3.7140   23.5040   15.8520 C.ar   16  PHE16      -0.0203
      7  CD1       -3.3970   22.6970   14.7760 C.ar   16  PHE16      -0.0042
      8  CD2       -5.0500   23.6500   16.1800 C.ar   16  PHE16      -0.0042
      9  CE1       -4.3620   22.1200   14.0160 C.ar   16  PHE16      -0.0003
     10  CE2       -6.0140   23.0550   15.4240 C.ar   16  PHE16      -0.0003
     11  CZ        -5.6490   22.2540   14.3340 C.ar   16  PHE16      -0.0000
     12  N         -0.0280   27.0170   12.5250 N.3    19  TYR19      -0.1241
     13  CA        -0.1120   25.9490   11.5010 C.3    19  TYR19       0.1605
     14  C         -1.3200   26.2340   10.6150 C.2    19  TYR19       0.2264
     15  O         -1.1530   26.2960    9.4080 O.2    19  TYR19      -0.2867
     16  CB        -0.1200   24.5380   12.1110 C.3    19  TYR19       0.0534
     17  CG        -0.3000   23.4160   11.0830 C.ar   19  TYR19      -0.0201
     18  CD1        0.7100   23.0730   10.2140 C.ar   19  TYR19      -0.0009
     19  CD2       -1.4870   22.7170   10.9960 C.ar   19  TYR19      -0.0009
     20  CE1        0.5260   22.0570    9.2600 C.ar   19  TYR19       0.0417
     21  CE2       -1.6950   21.7220   10.0470 C.ar   19  TYR19       0.0417
     22  CZ        -0.6710   21.3890    9.1720 C.ar   19  TYR19       0.1957
     23  OH        -0.8730   20.4050    8.2190 O.3    19  TYR19      -0.2866
     24  N        -10.9340   25.9560   15.8550 N.3    33  GLY33      -0.1225
     25  CA        -9.8900   24.9440   15.7600 C.3    33  GLY33       0.1811
     26  C         -9.0020   24.9560   16.9830 C.2    33  GLY33       0.2280
     27  O         -8.4770   23.9330   17.3810 O.2    33  GLY33      -0.2866
     28  N        -10.9740   23.2010   19.9140 N.3    36  ALA36      -0.1245
     29  CA       -11.2110   21.7490   19.7620 C.3    36  ALA36       0.1562
     30  C        -10.2590   20.9040   20.6100 C.2    36  ALA36       0.2260
     31  O         -9.0350   21.1960   20.6990 O.2    36  ALA36      -0.2867
     32  CB       -11.0800   21.3070   18.2640 C.3    36  ALA36       0.0290
     33  N         -9.7960   17.1610   20.0740 N.3    38  PRO38      -0.2116
     34  CA       -10.3980   16.0440   19.3270 C.3    38  PRO38       0.1372
     35  C        -10.0260   14.6540   19.8140 C.2    38  PRO38       0.2244
     36  O         -9.0250   14.4460   20.5270 O.2    38  PRO38      -0.2868
     37  CB        -9.8540   16.2420   17.9030 C.3    38  PRO38       0.0268
     38  CG        -8.8760   17.3570   17.9880 C.3    38  PRO38       0.0207
     39  CD        -8.6660   17.7770   19.3740 C.3    38  PRO38       0.0892
     40  N         -9.3070   10.8190   18.0920 N.3    40  VAL40      -0.1245
     41  CA        -8.9700   10.2240   16.8320 C.3    40  VAL40       0.1561
     42  C         -9.0980    8.7580   17.0260 C.2    40  VAL40       0.2260
     43  O         -8.4510    8.2030   17.9010 O.2    40  VAL40      -0.2867
     44  CB        -7.5260   10.5950   16.3860 C.3    40  VAL40       0.0252
     45  CG1       -7.1030    9.8220   15.1670 C.3    40  VAL40       0.0019
     46  CG2       -7.4050   12.1080   16.0930 C.3    40  VAL40       0.0019
     47  N        -11.8170   11.5280   13.0480 N.3    53  THR53      -0.1218
     48  CA       -11.4550   12.5780   13.9600 C.3    53  THR53       0.1862
     49  C        -12.7740   13.2340   14.4100 C.2    53  THR53       0.2287
     50  O        -13.5380   13.7390   13.5930 O.2    53  THR53      -0.2866
     51  CB       -10.6000   13.6040   13.2730 C.3    53  THR53       0.1770
     52  OG1       -9.3860   13.0060   12.8030 O.3    53  THR53      -0.2211
     53  CG2      -10.2850   14.7890   14.2490 C.3    53  THR53       0.0375
     54  N        -14.8270   16.0220   17.0330 N.3    55  SER55      -0.1217
     55  CA       -14.7810   17.2220   17.9220 C.3    55  SER55       0.1889
     56  C        -16.1850   17.8540   18.0740 C.2    55  SER55       0.2288
     57  O        -17.0950   17.4710   17.3850 O.2    55  SER55      -0.2866
     58  CB       -13.7700   18.2570   17.3930 C.3    55  SER55       0.2089
     59  OG       -14.2970   19.0540   16.3290 O.3    55  SER55      -0.2183
     60  N        -17.0220   20.7630   17.0730 N.3    57  PHE57      -0.1227
     61  CA       -17.2340   21.7130   15.9660 C.3    57  PHE57       0.1736
     62  C        -17.2090   21.1100   14.5630 C.2    57  PHE57       0.2595
     63  O        -17.7760   21.6950   13.6420 O.2    57  PHE57      -0.2718
     64  CB       -16.1850   22.8200   16.0370 C.3    57  PHE57       0.0547
     65  CG       -16.0050   23.3840   17.4060 C.ar   57  PHE57      -0.0202
     66  CD1      -16.9440   24.2770   17.9300 C.ar   57  PHE57      -0.0042
     67  CD2      -14.9090   23.0500   18.1680 C.ar   57  PHE57      -0.0042
     68  CE1      -16.7920   24.8230   19.1910 C.ar   57  PHE57      -0.0003
     69  CE2      -14.7540   23.5790   19.4230 C.ar   57  PHE57      -0.0003
     70  CZ       -15.7010   24.4740   19.9410 C.ar   57  PHE57      -0.0000
     71  N        -16.5180   19.9760   14.4030 N.am   58  LYS58      -0.1980
     72  CA       -16.4300   19.2690   13.1110 C.3    58  LYS58       0.1596
     73  C        -15.9350   17.8380   13.3130 C.2    58  LYS58       0.2287
     74  O        -14.9790   17.5860   14.0550 O.2    58  LYS58      -0.2864
     75  CB       -15.4840   20.0060   12.1490 C.3    58  LYS58       0.0298
     76  CG       -15.4290   19.4440   10.7140 C.3    58  LYS58       0.0038
     77  CD       -16.2950   20.2820    9.7600 C.3    58  LYS58       0.0206
     78  CE       -16.5560   19.5750    8.4240 C.3    58  LYS58       0.1093
     79  NZ       -15.4450   19.6800    7.4710 N.3    58  LYS58      -0.1314
     80  N        -14.4790   14.4430   10.9760 N.3    60  THR60      -0.1218
     81  CA       -13.9960   14.0900    9.6500 C.3    60  THR60       0.1862
     82  C        -13.6680   12.6170    9.6550 C.2    60  THR60       0.2287
     83  O        -13.4660   12.0280   10.7160 O.2    60  THR60      -0.2866
     84  CB       -12.7130   14.8530    9.2360 C.3    60  THR60       0.1770
     85  OG1      -11.6830   14.6310   10.2090 O.3    60  THR60      -0.2211
     86  CG2      -12.9770   16.3480    9.0420 C.3    60  THR60       0.0375
     87  N        -10.9950   19.4060    7.0820 N.3    75  ALA75      -0.1245
     88  CA       -11.8740   20.0380    8.1010 C.3    75  ALA75       0.1562
     89  C        -12.1320   21.5120    7.8300 C.2    75  ALA75       0.2260
     90  O        -13.1990   22.0370    8.0940 O.2    75  ALA75      -0.2867
     91  CB       -11.2700   19.8620    9.4540 C.3    75  ALA75       0.0290
     92  N          1.8070   15.4540    7.5680 N.3   104  ILE104     -0.1245
     93  CA         1.2880   15.0360    8.8610 C.3   104  ILE104      0.1561
     94  C          1.8800   13.6580    9.1990 C.2   104  ILE104      0.2260
     95  O          1.4910   12.6270    8.6010 O.2   104  ILE104     -0.2867
     96  CB        -0.2400   14.9570    8.8240 C.3   104  ILE104      0.0252
     97  CG1       -0.8250   16.3190    8.4250 C.3   104  ILE104      0.0019
     98  CG2       -0.7680   14.5220   10.1240 C.3   104  ILE104      0.0019
     99  CD1       -2.1420   16.2000    7.8900 C.3   104  ILE104      0.0001
    100  N          2.5210   10.8210   12.0740 N.3   106  ARG106     -0.1245
    101  CA         2.0650   10.2420   13.3210 C.3   106  ARG106      0.1563
    102  C          3.0420    9.2080   13.8430 C.2   106  ARG106      0.2260
    103  O          3.2460    8.1660   13.2130 O.2   106  ARG106     -0.2867
    104  CB         0.6970    9.6040   13.1520 C.3   106  ARG106      0.0307
    105  CG        -0.3800   10.5330   12.6150 C.3   106  ARG106      0.0489
    106  CD        -1.6510    9.7530   12.2420 C.3   106  ARG106      0.2205
    107  NE        -2.5590   10.5910   11.4730 N.pl3 106  ARG106     -0.0865
    108  CZ        -3.5320   11.3220   11.9800 C.cat 106  ARG106      0.5346
    109  NH1       -3.7740   11.2970   13.2990 N.pl3 106  ARG106      0.1354
    110  NH2       -4.2790   12.0850   11.1660 N.pl3 106  ARG106      0.1354
    111  N          2.1650   13.7600   16.7880 N.3   115  VAL115     -0.1245
    112  CA         1.8100   14.1020   15.4080 C.3   115  VAL115      0.1561
    113  C          2.5150   15.3990   15.0190 C.2   115  VAL115      0.2260
    114  O          2.2690   16.4430   15.6410 O.2   115  VAL115     -0.2867
    115  CB         0.2880   14.1650   15.2650 C.3   115  VAL115      0.0252
    116  CG1       -0.1630   14.5650   13.8350 C.3   115  VAL115      0.0019
    117  CG2       -0.3600   12.8150   15.7430 C.3   115  VAL115      0.0019
    118  N          3.1200   18.2190   12.2600 N.3   117  CYS117     -0.1235
    119  CA         2.4570   18.7520   11.0850 C.3   117  CYS117      0.1677
    120  C          3.3460   19.8930   10.6190 C.2   117  CYS117      0.2270
    121  O          3.7100   20.6840   11.4410 O.2   117  CYS117     -0.2867
    122  CB         1.0790   19.2760   11.4550 C.3   117  CYS117      0.0956
    123  SG         0.0110   18.0940   12.2850 S.3   117  CYS117     -0.0801
    124  N          1.1170   17.8600   17.9910 N.3   126  ARG126     -0.1245
    125  CA        -0.0730   17.4950   18.7710 C.3   126  ARG126      0.1563
    126  C          0.1380   16.1200   19.3580 C.2   126  ARG126      0.2260
    127  O          0.4870   15.1900   18.6190 O.2   126  ARG126     -0.2867
    128  CB        -1.3310   17.4530   17.8960 C.3   126  ARG126      0.0307
    129  CG        -1.3430   18.4670   16.7550 C.3   126  ARG126      0.0489
    130  CD        -2.1640   19.6740   17.1010 C.3   126  ARG126      0.2205
    131  NE        -3.5710   19.3430   17.0000 N.pl3 126  ARG126     -0.0865
    132  CZ        -4.5600   20.0670   17.5580 C.cat 126  ARG126      0.5346
    133  NH1       -4.3080   21.1750   18.2010 N.pl3 126  ARG126      0.1354
    134  NH2       -5.8100   19.6870   17.4600 N.pl3 126  ARG126      0.1354
    135  N         -1.4130   12.8580   21.4890 N.3   128  TYR128     -0.1241
    136  CA        -2.6430   12.1190   21.8630 C.3   128  TYR128      0.1605
    137  C         -2.2680   10.9560   22.8160 C.2   128  TYR128      0.2264
    138  O         -1.1860   10.3480   22.7130 O.2   128  TYR128     -0.2867
    139  CB        -3.4050   11.5910   20.6060 C.3   128  TYR128      0.0534
    140  CG        -3.7950   12.6690   19.6140 C.ar  128  TYR128     -0.0201
    141  CD1       -2.8180   13.2840   18.8240 C.ar  128  TYR128     -0.0009
    142  CD2       -5.1300   13.0970   19.4530 C.ar  128  TYR128     -0.0009
    143  CE1       -3.1510   14.3120   17.9250 C.ar  128  TYR128      0.0417
    144  CE2       -5.4740   14.1160   18.5220 C.ar  128  TYR128      0.0417
    145  CZ        -4.4590   14.7120   17.7870 C.ar  128  TYR128      0.1957
    146  OH        -4.7010   15.7070   16.8660 O.3   128  TYR128     -0.2866
@<TRIPOS>BOND
     1    87    88    1
     2    79    78    1
     3    92    93    1
     4    89    90    2
     5    89    88    1
     6    99    97    1
     7    88    91    1
     8    23    22    1
     9    78    77    1
    10    97    96    1
    11    95    94    2
    12    96    93    1
    13    96    98    1
    14    93    94    1
    15    86    84    1
    16    22    20   ar
    17    22    21   ar
    18    84    81    1
    19    84    85    1
    20    20    18   ar
    21    15    14    2
    22    81    82    1
    23    81    80    1
    24    82    83    2
    25    77    76    1
    26    21    19   ar
    27    18    17   ar
    28    14    13    1
    29   120   119    1
    30   120   121    2
    31    76    75    1
    32    19    17   ar
    33    17    16    1
    34   119   122    1
    35   119   118    1
    36   110   108    1
    37   122   123    1
    38   107   108    2
    39   107   106    1
    40    13    16    1
    41    13    12    1
    42   108   109    1
    43   100   101    1
    44    75    72    1
    45   106   105    1
    46   105   104    1
    47    52    51    1
    48    47    48    1
    49    72    73    1
    50    72    71    1
    51   104   101    1
    52   103   102    2
    53    51    48    1
    54    51    53    1
    55    73    74    2
    56   101   102    1
    57    50    49    2
    58    63    62    2
    59   116   115    1
    60    48    49    1
    61     9    11   ar
    62     9     7   ar
    63     4     3    2
    64    11    10   ar
    65    71    62   am
    66    62    61    1
    67     7     6   ar
    68   113   112    1
    69   113   114    2
    70    45    44    1
    71     3     2    1
    72   115   112    1
    73   115   117    1
    74   112   111    1
    75    10     8   ar
    76    25    24    1
    77    25    26    1
    78     6     8   ar
    79     6     5    1
    80     2     5    1
    81     2     1    1
    82    61    64    1
    83    61    60    1
    84    64    65    1
    85    46    44    1
    86    59    58    1
    87    44    41    1
    88   129   130    1
    89   129   128    1
    90    41    42    1
    91    41    40    1
    92   146   145    1
    93    26    27    2
    94   131   130    1
    95   131   132    2
    96    42    43    2
    97    54    55    1
    98    57    56    2
    99    58    55    1
   100    65    66   ar
   101    65    67   ar
   102   134   132    1
   103   132   133    1
   104   145   143   ar
   105   145   144   ar
   106   128   125    1
   107    37    38    1
   108    37    34    1
   109    55    56    1
   110   143   141   ar
   111    66    68   ar
   112    38    39    1
   113   124   125    1
   114    67    69   ar
   115    32    29    1
   116   144   142   ar
   117   127   126    2
   118   125   126    1
   119   141   140   ar
   120    68    70   ar
   121    34    35    1
   122    34    33    1
   123    39    33    1
   124    69    70   ar
   125   142   140   ar
   126   140   139    1
   127    29    28    1
   128    29    30    1
   129    35    36    2
   130   139   136    1
   131    30    31    2
   132   135   136    1
   133   136   137    1
   134   138   137    2
