@<TRIPOS>MOLECULE
tmp/1yiyB00.pdb
 157 148 0 0 0
SMALL
GASTEIGER

@<TRIPOS>ATOM
      1  N         15.2090  -17.4280   28.6220 N.3    33  GLN33      -0.1231
      2  CA        16.1350  -16.3340   28.4790 C.3    33  GLN33       0.1698
      3  C         17.4480  -16.6370   27.7680 C.2    33  GLN33       0.2592
      4  O         17.5030  -16.6390   26.5400 O.2    33  GLN33      -0.2718
      5  CB        16.5090  -15.8490   29.8880 C.3    33  GLN33       0.0381
      6  CG        16.4270  -16.8860   30.9840 C.3    33  GLN33       0.0905
      7  CD        17.6580  -17.6840   31.3230 C.2    33  GLN33       0.2608
      8  OE1       17.9790  -18.6730   30.6620 O.2    33  GLN33      -0.2717
      9  NE2       18.3700  -17.2920   32.3730 N.am   33  GLN33      -0.0878
     10  N         18.4970  -16.8540   28.5620 N.am   34  GLY34      -0.1957
     11  CA        19.8440  -16.9950   28.0200 C.3    34  GLY34       0.1869
     12  C         20.8750  -16.1690   28.7720 C.2    34  GLY34       0.2309
     13  O         21.5130  -15.2880   28.1960 O.2    34  GLY34      -0.2863
     14  N         26.2160   -1.7860   20.4230 N.3    97  VAL97      -0.1231
     15  CA        25.3640   -2.0530   21.5720 C.3    97  VAL97       0.1692
     16  C         24.8750   -3.5030   21.5030 C.2    97  VAL97       0.2593
     17  O         23.7580   -3.8070   21.0990 O.2    97  VAL97      -0.2718
     18  CB        24.1490   -1.1220   21.6800 C.3    97  VAL97       0.0266
     19  CG1       23.2780   -1.5500   22.8590 C.3    97  VAL97       0.0020
     20  CG2       24.5880    0.3210   21.8310 C.3    97  VAL97       0.0020
     21  N         25.8130   -4.3490   21.9180 N.am   98  GLY98      -0.1942
     22  CA        25.6670   -5.7910   21.8820 C.3    98  GLY98       0.2014
     23  C         25.9590   -6.2710   20.4700 C.2    98  GLY98       0.2639
     24  O         26.1120   -5.4460   19.5580 O.2    98  GLY98      -0.2714
     25  N         25.9890   -7.5980   20.3220 N.am   99  ALA99      -0.1963
     26  CA        26.0110   -8.2100   18.9980 C.3    99  ALA99       0.1728
     27  C         24.7370   -7.8430   18.2440 C.2    99  ALA99       0.2616
     28  O         24.6910   -7.8570   17.0180 O.2    99  ALA99      -0.2715
     29  CB        26.1710   -9.7190   19.0700 C.3    99  ALA99       0.0334
     30  N         23.6890   -7.5030   18.9850 N.am  100  TYR100     -0.1974
     31  CA        22.4200   -7.0990   18.4100 C.3   100  TYR100      0.1639
     32  C         22.5860   -5.9010   17.4880 C.2   100  TYR100      0.2290
     33  O         22.2070   -5.9450   16.3110 O.2   100  TYR100     -0.2864
     34  CB        21.4570   -6.8290   19.5740 C.3   100  TYR100      0.0560
     35  CG        20.0560   -7.3140   19.2650 C.ar  100  TYR100     -0.0198
     36  CD1       19.5360   -8.4850   19.7920 C.ar  100  TYR100     -0.0009
     37  CD2       19.2620   -6.5570   18.4160 C.ar  100  TYR100     -0.0009
     38  CE1       18.2440   -8.8810   19.4690 C.ar  100  TYR100      0.0417
     39  CE2       17.9780   -6.9360   18.0890 C.ar  100  TYR100      0.0417
     40  CZ        17.4850   -8.1060   18.6300 C.ar  100  TYR100      0.1957
     41  OH        16.2010   -8.4650   18.2900 O.3   100  TYR100     -0.2866
     42  N         24.8020   -6.7410   14.4470 N.3   103  LEU103     -0.1245
     43  CA        24.0280   -7.4140   13.4090 C.3   103  LEU103      0.1561
     44  C         23.1730   -6.4360   12.6020 C.2   103  LEU103      0.2260
     45  O         23.0690   -6.5800   11.3820 O.2   103  LEU103     -0.2867
     46  CB        23.0920   -8.4730   13.9900 C.3   103  LEU103      0.0270
     47  CG        23.7050   -9.8150   14.3920 C.3   103  LEU103      0.0019
     48  CD1       22.8010  -10.5000   15.4210 C.3   103  LEU103      0.0001
     49  CD2       23.9410  -10.7080   13.1900 C.3   103  LEU103      0.0001
     50  N         18.6130  -17.3140   14.9930 N.3   124  PHE124     -0.1241
     51  CA        18.3780  -16.3010   16.0280 C.3   124  PHE124      0.1605
     52  C         17.3430  -15.3150   15.5010 C.2   124  PHE124      0.2264
     53  O         17.4840  -14.7760   14.4040 O.2   124  PHE124     -0.2867
     54  CB        19.6820  -15.6130   16.4050 C.3   124  PHE124      0.0534
     55  CG        19.5160  -14.5880   17.5200 C.ar  124  PHE124     -0.0203
     56  CD1       18.8200  -14.9370   18.6640 C.ar  124  PHE124     -0.0042
     57  CD2       20.0520  -13.3200   17.3990 C.ar  124  PHE124     -0.0042
     58  CE1       18.6620  -14.0260   19.6940 C.ar  124  PHE124     -0.0003
     59  CE2       19.8970  -12.4060   18.4260 C.ar  124  PHE124     -0.0003
     60  CZ        19.2030  -12.7590   19.5720 C.ar  124  PHE124     -0.0000
     61  N         25.6630  -18.7070   11.9700 N.3   178  ASN178     -0.1240
     62  CA        25.8100  -18.5560   13.4140 C.3   178  ASN178      0.1653
     63  C         26.5000  -19.7730   14.0080 C.2   178  ASN178      0.2266
     64  O         25.8950  -20.8520   14.0820 O.2   178  ASN178     -0.2867
     65  CB        24.4190  -18.3450   14.0130 C.3   178  ASN178      0.1155
     66  CG        24.4090  -18.2890   15.5270 C.2   178  ASN178      0.2627
     67  OD1       23.4160  -18.6730   16.1410 O.2   178  ASN178     -0.2716
     68  ND2       25.5010  -17.8090   16.1130 N.am  178  ASN178     -0.0877
     69  N         22.8290  -20.9320   17.8750 N.3   182  ASN182     -0.1240
     70  CA        21.6600  -20.7590   18.7390 C.3   182  ASN182      0.1653
     71  C         20.4250  -21.1110   17.9220 C.2   182  ASN182      0.2266
     72  O         20.2310  -20.4820   16.8710 O.2   182  ASN182     -0.2867
     73  CB        21.6260  -19.3390   19.2670 C.3   182  ASN182      0.1155
     74  CG        20.5450  -18.9770   20.2530 C.2   182  ASN182      0.2627
     75  OD1       20.5370  -17.8660   20.8040 O.2   182  ASN182     -0.2716
     76  ND2       19.5980  -19.8660   20.5170 N.am  182  ASN182     -0.0877
     77  N         28.0680  -14.7630   12.9220 N.3   210  ASP210     -0.1239
     78  CA        27.6690  -14.4850   14.2950 C.3   210  ASP210      0.1674
     79  C         28.3560  -15.4870   15.2100 C.2   210  ASP210      0.2266
     80  O         27.9350  -16.6400   15.3080 O.2   210  ASP210     -0.2867
     81  CB        26.1530  -14.5720   14.4370 C.3   210  ASP210      0.1410
     82  CG        25.6230  -14.1690   15.7930 C.2   210  ASP210      0.3668
     83  OD1       26.4020  -14.2000   16.7610 O.co2 210  ASP210     -0.2456
     84  OD2       24.4210  -13.8340   15.8930 O.co2 210  ASP210     -0.2456
     85  N         29.0830  -15.1350   18.7270 N.3   212  VAL212     -0.1231
     86  CA        29.1050  -14.7070   20.1250 C.3   212  VAL212      0.1692
     87  C         29.4380  -15.8550   21.0660 C.2   212  VAL212      0.2592
     88  O         29.9260  -15.6010   22.1720 O.2   212  VAL212     -0.2718
     89  CB        27.7730  -14.0510   20.5480 C.3   212  VAL212      0.0266
     90  CG1       27.5700  -12.8040   19.6920 C.3   212  VAL212      0.0020
     91  CG2       26.5860  -14.9870   20.4320 C.3   212  VAL212      0.0020
     92  N         29.1950  -17.1080   20.6480 N.am  213  TYR213     -0.1976
     93  CA        29.4730  -18.2060   21.5710 C.3   213  TYR213      0.1639
     94  C         30.8220  -18.8420   21.2650 C.2   213  TYR213      0.2290
     95  O         31.0750  -19.9650   21.6850 O.2   213  TYR213     -0.2864
     96  CB        28.3380  -19.2370   21.5270 C.3   213  TYR213      0.0560
     97  CG        27.0090  -18.6110   21.8930 C.ar  213  TYR213     -0.0198
     98  CD1       26.8280  -18.0470   23.1540 C.ar  213  TYR213     -0.0009
     99  CD2       25.9650  -18.5850   20.9910 C.ar  213  TYR213     -0.0009
    100  CE1       25.6110  -17.4760   23.4810 C.ar  213  TYR213      0.0417
    101  CE2       24.7510  -18.0140   21.3170 C.ar  213  TYR213      0.0417
    102  CZ        24.5850  -17.4640   22.5680 C.ar  213  TYR213      0.1957
    103  OH        23.3720  -16.8870   22.8960 O.3   213  TYR213     -0.2866
    104  N         30.4150  -10.5930   21.2120 N.3   241  SER241     -0.1217
    105  CA        29.6190   -9.9570   22.2480 C.3   241  SER241      0.1889
    106  C         30.2710  -10.0760   23.6210 C.2   241  SER241      0.2288
    107  O         30.6710  -11.1720   24.0100 O.2   241  SER241     -0.2866
    108  CB        28.2310  -10.6020   22.3330 C.3   241  SER241      0.2089
    109  OG        27.5510  -10.2030   23.5100 O.3   241  SER241     -0.2183
    110  N         28.7530   -9.5330   26.3810 N.3   243  GLY243     -0.1210
    111  CA        27.7630  -10.1680   27.2400 C.3   243  GLY243      0.1956
    112  C         27.9630  -11.6650   27.2720 C.2   243  GLY243      0.2611
    113  O         27.7360  -12.3190   28.2930 O.2   243  GLY243     -0.2717
    114  N         28.3980  -12.2300   26.1450 N.am  244  LYS244     -0.1979
    115  CA        28.6070  -13.6760   26.0950 C.3   244  LYS244      0.1596
    116  C         30.0530  -14.0230   26.4310 C.2   244  LYS244      0.2287
    117  O         30.3000  -15.0250   27.1080 O.2   244  LYS244     -0.2864
    118  CB        28.2390  -14.2410   24.7210 C.3   244  LYS244      0.0298
    119  CG        27.1800  -13.4170   23.9970 C.3   244  LYS244      0.0038
    120  CD        25.8800  -14.2000   23.9350 C.3   244  LYS244      0.0206
    121  CE        25.0320  -13.9050   25.1650 C.3   244  LYS244      0.1093
    122  NZ        24.2800  -12.6300   24.9720 N.3   244  LYS244     -0.1314
    123  N         25.5140  -10.2210   30.3300 N.3   249  THR249     -0.1218
    124  CA        24.5650   -9.9220   29.2620 C.3   249  THR249      0.1862
    125  C         23.9770   -8.5230   29.4160 C.2   249  THR249      0.2287
    126  O         23.5270   -7.9220   28.4490 O.2   249  THR249     -0.2866
    127  CB        23.4610  -10.9890   29.2060 C.3   249  THR249      0.1770
    128  OG1       22.8130  -11.0980   30.4820 O.3   249  THR249     -0.2211
    129  CG2       24.0460  -12.3760   28.9190 C.3   249  THR249      0.0375
    130  N         25.6230   -5.2620   27.3610 N.3   252  LYS252     -0.1231
    131  CA        25.1940   -4.9250   25.9990 C.3   252  LYS252      0.1693
    132  C         26.2350   -4.1470   25.2160 C.2   252  LYS252      0.2591
    133  O         26.0740   -3.0060   24.7820 O.2   252  LYS252     -0.2718
    134  CB        23.8600   -4.1530   26.0870 C.3   252  LYS252      0.0285
    135  CG        22.6960   -5.1030   26.3760 C.3   252  LYS252      0.0035
    136  CD        21.8320   -4.6790   27.5420 C.3   252  LYS252      0.0206
    137  CE        21.3490   -5.8230   28.4170 C.3   252  LYS252      0.1093
    138  NZ        20.2760   -5.4060   29.3770 N.3   252  LYS252     -0.1314
    139  N         27.3790   -4.7860   25.0140 N.am  253  ILE253     -0.1980
    140  CA        28.4800   -4.2940   24.2130 C.3   253  ILE253      0.1595
    141  C         28.9890   -5.4370   23.3370 C.2   253  ILE253      0.2287
    142  O         29.3970   -6.4770   23.8360 O.2   253  ILE253     -0.2864
    143  CB        29.6450   -3.7300   25.0420 C.3   253  ILE253      0.0276
    144  CG1       29.2860   -2.4440   25.7800 C.3   253  ILE253      0.0022
    145  CG2       30.8830   -3.4870   24.1850 C.3   253  ILE253      0.0022
    146  CD1       29.0740   -1.2910   24.8060 C.3   253  ILE253      0.0001
    147  N         22.7590  -23.6300   25.4190 N.3   336  PHE336     -0.1241
    148  CA        21.3960  -23.9510   25.0600 C.3   336  PHE336      0.1605
    149  C         21.2680  -25.4170   24.6490 C.2   336  PHE336      0.2264
    150  O         22.1590  -25.9990   24.0400 O.2   336  PHE336     -0.2867
    151  CB        20.8940  -23.0990   23.8890 C.3   336  PHE336      0.0534
    152  CG        20.7310  -21.6270   24.2480 C.ar  336  PHE336     -0.0203
    153  CD1       19.9870  -21.3060   25.3710 C.ar  336  PHE336     -0.0042
    154  CD2       21.3080  -20.6280   23.4930 C.ar  336  PHE336     -0.0042
    155  CE1       19.8290  -19.9800   25.7280 C.ar  336  PHE336     -0.0003
    156  CE2       21.1390  -19.2960   23.8430 C.ar  336  PHE336     -0.0003
    157  CZ        20.3970  -18.9860   24.9670 C.ar  336  PHE336     -0.0000
@<TRIPOS>BOND
     1    45    44    2
     2    61    62    1
     3    44    43    1
     4    77    78    1
     5    49    47    1
     6    43    46    1
     7    43    42    1
     8    62    63    1
     9    62    65    1
    10    46    47    1
    11    63    64    2
    12    65    66    1
    13    78    81    1
    14    78    79    1
    15    47    48    1
    16    53    52    2
    17    81    82    1
    18    50    51    1
    19    79    80    2
    20    52    51    1
    21    66    68   am
    22    66    67    2
    23    82    84   ar
    24    82    83   ar
    25    51    54    1
    26    33    32    2
    27    54    55    1
    28    72    71    2
    29    28    27    2
    30    57    55   ar
    31    57    59   ar
    32    32    31    1
    33    55    56   ar
    34    69    70    1
    35    71    70    1
    36    39    37   ar
    37    39    40   ar
    38    27    30   am
    39    27    26    1
    40    41    40    1
    41    31    30    1
    42    31    34    1
    43    37    35   ar
    44    59    60   ar
    45    40    38   ar
    46    56    58   ar
    47    85    86    1
    48    70    73    1
    49    26    29    1
    50    26    25    1
    51    35    34    1
    52    35    36   ar
    53    73    74    1
    54    38    36   ar
    55    24    23    2
    56    60    58   ar
    57    90    89    1
    58    86    89    1
    59    86    87    1
    60    74    76   am
    61    74    75    2
    62    25    23   am
    63    14    15    1
    64    91    89    1
    65    23    22    1
    66    92    87   am
    67    92    93    1
    68    99   101   ar
    69    99    97   ar
    70    87    88    2
    71    17    16    2
    72   104   105    1
    73    94    93    1
    74    94    95    2
    75   101   102   ar
    76    16    15    1
    77    16    21   am
    78    96    93    1
    79    96    97    1
    80    15    18    1
    81    18    20    1
    82    18    19    1
    83    22    21    1
    84    97    98   ar
    85   105   108    1
    86   105   106    1
    87   108   109    1
    88   102   103    1
    89   102   100   ar
    90    98   100   ar
    91   141   142    2
    92   141   140    1
    93   154   156   ar
    94   154   152   ar
    95   106   107    2
    96   156   157   ar
    97   151   152    1
    98   151   148    1
    99   120   119    1
   100   120   121    1
   101   119   118    1
   102   150   149    2
   103   145   143    1
   104   140   139    1
   105   140   143    1
   106   152   153   ar
   107   149   148    1
   108   118   115    1
   109   133   132    2
   110   146   144    1
   111   157   155   ar
   112   122   121    1
   113   139   132   am
   114   143   144    1
   115   148   147    1
   116   132   131    1
   117   153   155   ar
   118   131   134    1
   119   131   130    1
   120   134   135    1
   121   115   114    1
   122   115   116    1
   123   114   112   am
   124   135   136    1
   125   110   111    1
   126   116   117    2
   127     4     3    2
   128   111   112    1
   129   112   113    2
   130   136   137    1
   131     3     2    1
   132     3    10   am
   133    11    10    1
   134    11    12    1
   135    13    12    2
   136   137   138    1
   137   126   125    2
   138     2     1    1
   139     2     5    1
   140   129   127    1
   141   127   124    1
   142   127   128    1
   143   124   125    1
   144   124   123    1
   145     5     6    1
   146     8     7    2
   147     6     7    1
   148     7     9   am
