@<TRIPOS>MOLECULE
tmp/1yjmC00.pdb
 105 101 0 0 0
SMALL
GASTEIGER

@<TRIPOS>ATOM
      1  N          5.5360    7.7350   75.5380 N.3    29  ARG29      -0.1231
      2  CA         4.4570    6.7460   75.5780 C.3    29  ARG29       0.1694
      3  C          5.0560    5.3430   75.6870 C.2    29  ARG29       0.2593
      4  O          5.8630    4.9420   74.8500 O.2    29  ARG29      -0.2718
      5  CB         3.5690    6.8610   74.3330 C.3    29  ARG29       0.0321
      6  CG         2.5790    5.7160   74.1520 C.3    29  ARG29       0.0489
      7  CD         1.3670    6.1310   73.3260 C.3    29  ARG29       0.2205
      8  NE         1.7430    6.8540   72.1140 N.pl3  29  ARG29      -0.0865
      9  CZ         2.2680    6.3000   71.0240 C.cat  29  ARG29       0.5346
     10  NH1        2.5010    4.9920   70.9590 N.pl3  29  ARG29       0.1354
     11  NH2        2.5740    7.0670   69.9860 N.pl3  29  ARG29       0.1354
     12  N          4.6720    4.6100   76.7280 N.am   30  GLY30      -0.1943
     13  CA         5.2250    3.2810   76.9710 C.3    30  GLY30       0.1998
     14  C          4.8920    2.7350   78.3480 C.2    30  GLY30       0.2480
     15  O          4.3550    3.4540   79.1910 O.2    30  GLY30      -0.2729
     16  N          5.2140    1.4520   78.5860 N.am   31  PRO31      -0.2726
     17  CA         4.8760    0.7900   79.8460 C.3    31  PRO31       0.1402
     18  C          5.6730    1.2760   81.0640 C.2    31  PRO31       0.2269
     19  O          5.2020    1.1310   82.1910 O.2    31  PRO31      -0.2865
     20  CB         5.1660   -0.6870   79.5540 C.3    31  PRO31       0.0296
     21  CG         6.1880   -0.6710   78.4850 C.3    31  PRO31       0.0237
     22  CD         5.9180    0.5480   77.6570 C.3    31  PRO31       0.0939
     23  N          3.6920    4.2420   81.7540 N.3    34  GLN34      -0.1231
     24  CA         2.2760    3.8490   81.7160 C.3    34  GLN34       0.1698
     25  C          1.3800    4.8970   81.0390 C.2    34  GLN34       0.2592
     26  O          0.1850    4.9810   81.3250 O.2    34  GLN34      -0.2718
     27  CB         1.7570    3.5160   83.1190 C.3    34  GLN34       0.0381
     28  CG         2.5760    2.4560   83.8420 C.3    34  GLN34       0.0905
     29  CD         1.9980    2.0770   85.1950 C.2    34  GLN34       0.2608
     30  OE1        1.0410    2.6880   85.6730 O.2    34  GLN34      -0.2717
     31  NE2        2.5820    1.0630   85.8190 N.am   34  GLN34      -0.0878
     32  N          1.9670    5.6780   80.1320 N.am   35  VAL35      -0.1966
     33  CA         1.2370    6.6750   79.3620 C.3    35  VAL35       0.1727
     34  C          0.8450    6.0450   78.0320 C.2    35  VAL35       0.2616
     35  O          1.7060    5.5550   77.3050 O.2    35  VAL35      -0.2715
     36  CB         2.1030    7.9310   79.0980 C.3    35  VAL35       0.0290
     37  CG1        1.3510    8.9410   78.2300 C.3    35  VAL35       0.0023
     38  CG2        2.5390    8.5680   80.4160 C.3    35  VAL35       0.0023
     39  N         -0.4530    6.0490   77.7300 N.am   36  THR36      -0.1951
     40  CA        -0.9740    5.4990   76.4760 C.3    36  THR36       0.1897
     41  C         -1.5060    6.5910   75.5400 C.2    36  THR36       0.2313
     42  O         -2.0870    6.2910   74.4950 O.2    36  THR36      -0.2863
     43  CB        -2.1010    4.4800   76.7510 C.3    36  THR36       0.1794
     44  OG1       -3.1280    5.0950   77.5400 O.3    36  THR36      -0.2208
     45  CG2       -1.5560    3.2670   77.4910 C.3    36  THR36       0.0378
     46  N         -1.8370    9.0120   72.7150 N.3    38  ARG38      -0.1231
     47  CA        -1.2700    9.0390   71.3630 C.3    38  ARG38       0.1694
     48  C         -0.5880   10.3660   71.0250 C.2    38  ARG38       0.2591
     49  O          0.3100   10.4040   70.1830 O.2    38  ARG38      -0.2718
     50  CB        -2.3450    8.7240   70.3180 C.3    38  ARG38       0.0321
     51  CG        -2.8300    7.2870   70.3570 C.3    38  ARG38       0.0489
     52  CD        -3.8840    7.0270   69.2950 C.3    38  ARG38       0.2205
     53  NE        -4.4250    5.6710   69.3800 N.pl3  38  ARG38      -0.0865
     54  CZ        -5.3520    5.1720   68.5620 C.cat  38  ARG38       0.5346
     55  NH1       -5.8640    5.9120   67.5810 N.pl3  38  ARG38       0.1354
     56  NH2       -5.7730    3.9220   68.7270 N.pl3  38  ARG38       0.1354
     57  N         -1.0130   11.4450   71.6790 N.am   39  LYS39      -0.1980
     58  CA        -0.3720   12.7510   71.5170 C.3    39  LYS39       0.1596
     59  C          1.0640   12.7390   72.0500 C.2    39  LYS39       0.2287
     60  O          1.9150   13.4900   71.5690 O.2    39  LYS39      -0.2864
     61  CB        -1.1820   13.8410   72.2230 C.3    39  LYS39       0.0298
     62  CG        -2.5920   14.0260   71.6770 C.3    39  LYS39       0.0038
     63  CD        -3.2420   15.2790   72.2430 C.3    39  LYS39       0.0206
     64  CE        -4.6380   15.4920   71.6820 C.3    39  LYS39       0.1093
     65  NZ        -5.2230   16.7880   72.1320 N.3    39  LYS39      -0.1314
     66  N          4.5630   11.2470   72.1010 N.3    41  SER41      -0.1202
     67  CA         5.4580   10.4200   71.2970 C.3    41  SER41       0.2020
     68  C          6.1350    9.3570   72.1600 C.2    41  SER41       0.2619
     69  O          6.3440    9.5600   73.3560 O.2    41  SER41      -0.2717
     70  CB         6.5220   11.2900   70.6210 C.3    41  SER41       0.2103
     71  OG         7.4480   10.5010   69.8960 O.3    41  SER41      -0.2182
     72  N          6.4640    8.2210   71.5480 N.am   42  ARG42      -0.1965
     73  CA         7.2650    7.1890   72.2130 C.3    42  ARG42       0.1729
     74  C          8.6780    7.7040   72.5000 C.2    42  ARG42       0.2616
     75  O          9.3160    7.2770   73.4610 O.2    42  ARG42      -0.2715
     76  CB         7.3260    5.9170   71.3630 C.3    42  ARG42       0.0348
     77  CG         6.0560    5.0850   71.4140 C.3    42  ARG42       0.0492
     78  CD         6.0260    4.0460   70.3040 C.3    42  ARG42       0.2205
     79  NE         5.6040    4.6130   69.0240 N.pl3  42  ARG42      -0.0865
     80  CZ         5.5790    3.9450   67.8720 C.cat  42  ARG42       0.5346
     81  NH1        5.9480    2.6680   67.8160 N.pl3  42  ARG42       0.1354
     82  NH2        5.1780    4.5580   66.7640 N.pl3  42  ARG42       0.1354
     83  N          9.1550    8.6080   71.6440 N.am   43  ASN43      -0.1972
     84  CA        10.3860    9.3540   71.8720 C.3    43  ASN43       0.1688
     85  C         10.0500   10.8270   72.1400 C.2    43  ASN43       0.2292
     86  O         10.2160   11.6780   71.2630 O.2    43  ASN43      -0.2864
     87  CB        11.3130    9.2320   70.6560 C.3    43  ASN43       0.1181
     88  CG        11.7220    7.7950   70.3690 C.2    43  ASN43       0.2629
     89  OD1       11.4590    7.2680   69.2860 O.2    43  ASN43      -0.2716
     90  ND2       12.3700    7.1570   71.3360 N.am   43  ASN43      -0.0877
     91  N          7.0980   15.9710   68.7250 N.3    63  VAL63      -0.1231
     92  CA         6.4600   17.1160   68.0680 C.3    63  VAL63       0.1692
     93  C          5.5980   17.9520   69.0240 C.2    63  VAL63       0.2592
     94  O          5.6510   19.1830   68.9920 O.2    63  VAL63      -0.2718
     95  CB         5.6140   16.6860   66.8300 C.3    63  VAL63       0.0266
     96  CG1        6.5000   16.0280   65.7850 C.3    63  VAL63       0.0020
     97  CG2        4.4480   15.7620   67.2200 C.3    63  VAL63       0.0020
     98  N          4.8150   17.2850   69.8710 N.am   64  ASN64      -0.1974
     99  CA         3.9660   17.9790   70.8380 C.3    64  ASN64       0.1688
    100  C          4.7780   18.3800   72.0750 C.2    64  ASN64       0.2292
    101  O          5.7310   17.6870   72.4430 O.2    64  ASN64      -0.2864
    102  CB         2.7640   17.1110   71.2220 C.3    64  ASN64       0.1181
    103  CG         1.8770   16.7770   70.0290 C.2    64  ASN64       0.2629
    104  OD1        1.7980   17.5360   69.0610 O.2    64  ASN64      -0.2716
    105  ND2        1.2020   15.6350   70.0970 N.am   64  ASN64      -0.0877
@<TRIPOS>BOND
     1    96    95    1
     2    82    80    1
     3    95    97    1
     4    95    92    1
     5    55    54    1
     6    81    80    1
     7    80    79    2
     8    92    91    1
     9    92    93    1
    10    54    56    1
    11    54    53    2
    12    94    93    2
    13    79    78    1
    14    93    98   am
    15   104   103    2
    16    89    88    2
    17    52    53    1
    18    52    51    1
    19    98    99    1
    20    71    70    1
    21    11     9    1
    22   103   105   am
    23   103   102    1
    24    49    48    2
    25    78    77    1
    26    50    51    1
    27    50    47    1
    28    88    87    1
    29    88    90   am
    30    70    67    1
    31    87    84    1
    32    99   102    1
    33    99   100    1
    34    10     9    1
    35     9     8    2
    36    48    47    1
    37    48    57   am
    38    86    85    2
    39    67    66    1
    40    67    68    1
    41    76    77    1
    42    76    73    1
    43    47    46    1
    44    58    57    1
    45    58    59    1
    46    58    61    1
    47    72    68   am
    48    72    73    1
    49    60    59    2
    50    83    84    1
    51    83    74   am
    52    62    61    1
    53    62    63    1
    54    64    65    1
    55    64    63    1
    56    84    85    1
    57   100   101    2
    58     8     7    1
    59    68    69    2
    60    73    74    1
    61    74    75    2
    62     7     6    1
    63     6     5    1
    64     5     2    1
    65    42    41    2
    66     4     3    2
    67     1     2    1
    68    41    40    1
    69     2     3    1
    70     3    12   am
    71    40    43    1
    72    40    39    1
    73    12    13    1
    74    43    45    1
    75    43    44    1
    76    13    14    1
    77    35    34    2
    78    22    21    1
    79    22    16    1
    80    39    34   am
    81    34    33    1
    82    37    36    1
    83    14    16   am
    84    14    15    2
    85    21    20    1
    86    16    17    1
    87    36    33    1
    88    36    38    1
    89    33    32    1
    90    20    17    1
    91    17    18    1
    92    32    25   am
    93    25    26    2
    94    25    24    1
    95    18    19    2
    96    24    23    1
    97    24    27    1
    98    27    28    1
    99    28    29    1
   100    29    30    2
   101    29    31   am
