@<TRIPOS>MOLECULE
tmp/1yjmA00.pdb
 109 105 0 0 0
SMALL
GASTEIGER

@<TRIPOS>ATOM
      1  N          6.4770   11.5060   55.9490 N.3    32  ARG32      -0.1231
      2  CA         5.4800   12.5630   55.7850 C.3    32  ARG32       0.1694
      3  C          4.6970   12.7510   57.0850 C.2    32  ARG32       0.2593
      4  O          4.0220   11.8310   57.5510 O.2    32  ARG32      -0.2718
      5  CB         4.5440   12.2270   54.6210 C.3    32  ARG32       0.0321
      6  CG         3.3120   13.1130   54.5090 C.3    32  ARG32       0.0489
      7  CD         2.7990   13.1670   53.0790 C.3    32  ARG32       0.2205
      8  NE         2.7300   11.8400   52.4720 N.pl3  32  ARG32      -0.0865
      9  CZ         1.8030   10.9260   52.7480 C.cat  32  ARG32       0.5346
     10  NH1        0.8350   11.1800   53.6260 N.pl3  32  ARG32       0.1354
     11  NH2        1.8440    9.7480   52.1350 N.pl3  32  ARG32       0.1354
     12  N          4.8000   13.9450   57.6640 N.am   33  GLY33      -0.1943
     13  CA         4.2110   14.2340   58.9710 C.3    33  GLY33       0.1998
     14  C          4.6920   15.5620   59.5370 C.2    33  GLY33       0.2480
     15  O          5.5200   16.2360   58.9190 O.2    33  GLY33      -0.2729
     16  N          4.1800   15.9470   60.7200 N.am   34  PRO34      -0.2726
     17  CA         4.5180   17.2340   61.3440 C.3    34  PRO34       0.1402
     18  C          5.9790   17.3910   61.7950 C.2    34  PRO34       0.2269
     19  O          6.4490   18.5210   61.9460 O.2    34  PRO34      -0.2865
     20  CB         3.5720   17.3000   62.5500 C.3    34  PRO34       0.0296
     21  CG         3.2330   15.8870   62.8510 C.3    34  PRO34       0.0237
     22  CD         3.2180   15.1790   61.5340 C.3    34  PRO34       0.0939
     23  N          7.4610   18.0610   58.3720 N.3    37  GLN37      -0.1231
     24  CA         6.5770   18.9950   57.6520 C.3    37  GLN37       0.1698
     25  C          6.4840   18.7510   56.1350 C.2    37  GLN37       0.2592
     26  O          6.0480   19.6290   55.3880 O.2    37  GLN37      -0.2718
     27  CB         6.9590   20.4550   57.9300 C.3    37  GLN37       0.0381
     28  CG         6.9270   20.8440   59.4030 C.3    37  GLN37       0.0905
     29  CD         7.2720   22.3060   59.6340 C.2    37  GLN37       0.2608
     30  OE1        7.6330   23.0300   58.7020 O.2    37  GLN37      -0.2717
     31  NE2        7.1640   22.7480   60.8810 N.am   37  GLN37      -0.0878
     32  N          6.8700   17.5600   55.6870 N.am   38  VAL38      -0.1966
     33  CA         6.7500   17.1920   54.2810 C.3    38  VAL38       0.1727
     34  C          5.3120   16.7360   54.0280 C.2    38  VAL38       0.2616
     35  O          4.7970   15.9010   54.7610 O.2    38  VAL38      -0.2715
     36  CB         7.7400   16.0610   53.9090 C.3    38  VAL38       0.0290
     37  CG1        7.5280   15.5990   52.4670 C.3    38  VAL38       0.0023
     38  CG2        9.1780   16.5250   54.1180 C.3    38  VAL38       0.0023
     39  N          4.6700   17.3120   53.0120 N.am   39  THR39      -0.1951
     40  CA         3.3020   16.9430   52.6190 C.3    39  THR39       0.1897
     41  C          3.2480   16.2700   51.2400 C.2    39  THR39       0.2313
     42  O          2.1650   15.9610   50.7380 O.2    39  THR39      -0.2863
     43  CB         2.3810   18.1820   52.5960 C.3    39  THR39       0.1794
     44  OG1        2.9250   19.1720   51.7160 O.3    39  THR39      -0.2208
     45  CG2        2.2420   18.7730   53.9890 C.3    39  THR39       0.0378
     46  N          3.0520   13.6350   48.5640 N.3    41  ARG41      -0.1231
     47  CA         2.4390   12.3040   48.5960 C.3    41  ARG41       0.1694
     48  C          3.4100   11.1940   48.1860 C.2    41  ARG41       0.2591
     49  O          3.2330   10.0420   48.5780 O.2    41  ARG41      -0.2718
     50  CB         1.1830   12.2510   47.7160 C.3    41  ARG41       0.0321
     51  CG         0.3060   11.0310   47.9930 C.3    41  ARG41       0.0489
     52  CD        -1.0830   11.1470   47.3800 C.3    41  ARG41       0.2205
     53  NE        -1.1150   10.7950   45.9600 N.pl3  41  ARG41      -0.0865
     54  CZ        -1.2930    9.5670   45.4680 C.cat  41  ARG41       0.5346
     55  NH1       -1.4490    8.5170   46.2690 N.pl3  41  ARG41       0.1354
     56  NH2       -1.3130    9.3840   44.1510 N.pl3  41  ARG41       0.1354
     57  N          4.4320   11.5410   47.4060 N.am   42  LYS42      -0.1980
     58  CA         5.4570   10.5770   47.0040 C.3    42  LYS42       0.1596
     59  C          6.3390   10.1280   48.1810 C.2    42  LYS42       0.2287
     60  O          6.9650    9.0690   48.1130 O.2    42  LYS42      -0.2864
     61  CB         6.3190   11.1510   45.8760 C.3    42  LYS42       0.0298
     62  CG         5.5610   11.3600   44.5710 C.3    42  LYS42       0.0038
     63  CD         6.4280   12.0500   43.5300 C.3    42  LYS42       0.0206
     64  CE         5.6400   12.3810   42.2730 C.3    42  LYS42       0.1093
     65  NZ         5.1190   11.1630   41.6060 N.3    42  LYS42      -0.1314
     66  N          6.6630    8.5440   51.8110 N.3    44  SER44      -0.1202
     67  CA         5.8890    7.6770   52.6960 C.3    44  SER44       0.2020
     68  C          5.7670    8.3020   54.0820 C.2    44  SER44       0.2619
     69  O          6.6290    9.0780   54.5010 O.2    44  SER44      -0.2717
     70  CB         6.5360    6.2920   52.8030 C.3    44  SER44       0.2103
     71  OG         5.7800    5.4390   53.6470 O.3    44  SER44      -0.2182
     72  N          4.6840    7.9700   54.7810 N.am   45  ARG45      -0.1965
     73  CA         4.5270    8.3430   56.1870 C.3    45  ARG45       0.1729
     74  C          5.5410    7.5880   57.0530 C.2    45  ARG45       0.2616
     75  O          5.8920    8.0420   58.1400 O.2    45  ARG45      -0.2715
     76  CB         3.0990    8.0680   56.6670 C.3    45  ARG45       0.0348
     77  CG         2.0650    9.0310   56.1000 C.3    45  ARG45       0.0492
     78  CD         0.6500    8.5080   56.2820 C.3    45  ARG45       0.2205
     79  NE         0.2740    7.5410   55.2530 N.pl3  45  ARG45      -0.0865
     80  CZ        -0.8440    6.8160   55.2750 C.cat  45  ARG45       0.5346
     81  NH1       -1.7140    6.9420   56.2700 N.pl3  45  ARG45       0.1354
     82  NH2       -1.0960    5.9590   54.2940 N.pl3  45  ARG45       0.1354
     83  N          5.9810    6.4280   56.5610 N.am   46  ASN46      -0.1972
     84  CA         7.1080    5.6880   57.1240 C.3    46  ASN46       0.1688
     85  C          8.1690    5.5080   56.0360 C.2    46  ASN46       0.2292
     86  O          8.2430    4.4640   55.3890 O.2    46  ASN46      -0.2864
     87  CB         6.6540    4.3200   57.6450 C.3    46  ASN46       0.1181
     88  CG         5.5790    4.4220   58.7100 C.2    46  ASN46       0.2629
     89  OD1        4.3950    4.5750   58.4030 O.2    46  ASN46      -0.2716
     90  ND2        5.9830    4.3100   59.9680 N.am   46  ASN46      -0.0877
     91  N          9.9850    3.1960   52.8220 N.3    65  GLY65      -0.1210
     92  CA         9.0530    3.7320   51.8390 C.3    65  GLY65       0.1956
     93  C          9.2460    3.1380   50.4590 C.2    65  GLY65       0.2612
     94  O         10.3020    2.5850   50.1480 O.2    65  GLY65      -0.2717
     95  N          8.2120    3.2590   49.6340 N.am   66  VAL66      -0.1965
     96  CA         8.2280    2.7360   48.2640 C.3    66  VAL66       0.1727
     97  C          9.1880    3.5070   47.3470 C.2    66  VAL66       0.2616
     98  O          9.8670    2.9070   46.5140 O.2    66  VAL66      -0.2715
     99  CB         6.7940    2.7050   47.6400 C.3    66  VAL66       0.0290
    100  CG1        6.1440    4.0940   47.6220 C.3    66  VAL66       0.0023
    101  CG2        6.8250    2.1170   46.2310 C.3    66  VAL66       0.0023
    102  N          9.2410    4.8280   47.5080 N.am   67  ASN67      -0.1972
    103  CA        10.0750    5.6850   46.6610 C.3    67  ASN67       0.1688
    104  C         11.4440    5.9710   47.2980 C.2    67  ASN67       0.2292
    105  O         11.5550    6.0460   48.5230 O.2    67  ASN67      -0.2864
    106  CB         9.3320    6.9830   46.3510 C.3    67  ASN67       0.1181
    107  CG         8.0460    6.7430   45.5760 C.2    67  ASN67       0.2629
    108  OD1        8.0490    6.0830   44.5350 O.2    67  ASN67      -0.2716
    109  ND2        6.9380    7.2690   46.0880 N.am   67  ASN67      -0.0877
@<TRIPOS>BOND
     1    65    64    1
     2    64    63    1
     3    63    62    1
     4    56    54    1
     5   108   107    2
     6    62    61    1
     7    54    53    2
     8    54    55    1
     9   107   109   am
    10   107   106    1
    11    61    58    1
    12    53    52    1
    13   101    99    1
    14   106   103    1
    15    98    97    2
    16   103   104    1
    17   103   102    1
    18    58    57    1
    19    58    59    1
    20   104   105    2
    21    97   102   am
    22    97    96    1
    23    52    51    1
    24    57    48   am
    25   100    99    1
    26    99    96    1
    27    50    51    1
    28    50    47    1
    29    60    59    2
    30    48    49    2
    31    48    47    1
    32    96    95    1
    33    46    47    1
    34    95    93   am
    35    94    93    2
    36    93    92    1
    37    42    41    2
    38    41    40    1
    39    44    43    1
    40    66    67    1
    41    92    91    1
    42    11     9    1
    43    37    36    1
    44     8     9    2
    45     8     7    1
    46    43    40    1
    47    43    45    1
    48    40    39    1
    49    67    70    1
    50    67    68    1
    51     9    10    1
    52    70    71    1
    53    39    34   am
    54     7     6    1
    55    36    38    1
    56    36    33    1
    57    34    33    1
    58    34    35    2
    59    68    69    2
    60    68    72   am
    61    33    32    1
    62    82    80    1
    63     6     5    1
    64     5     2    1
    65    72    73    1
    66    79    80    2
    67    79    78    1
    68    80    81    1
    69    26    25    2
    70    86    85    2
    71    32    25   am
    72     2     1    1
    73     2     3    1
    74    85    84    1
    75    77    78    1
    76    77    76    1
    77    25    24    1
    78    73    76    1
    79    73    74    1
    80    83    74   am
    81    83    84    1
    82    74    75    2
    83     3     4    2
    84     3    12   am
    85    84    87    1
    86    87    88    1
    87    24    27    1
    88    24    23    1
    89    12    13    1
    90    27    28    1
    91    89    88    2
    92    30    29    2
    93    88    90   am
    94    15    14    2
    95    13    14    1
    96    28    29    1
    97    14    16   am
    98    29    31   am
    99    16    17    1
   100    16    22    1
   101    17    18    1
   102    17    20    1
   103    22    21    1
   104    18    19    2
   105    20    21    1
