@<TRIPOS>MOLECULE
tmp/1yjxD00.pdb
 122 115 0 0 0
SMALL
GASTEIGER

@<TRIPOS>ATOM
      1  N         16.9900   35.8140   33.9100 N.3     9  ARG9       -0.1245
      2  CA        16.5870   36.7580   32.8850 C.3     9  ARG9        0.1563
      3  C         15.0730   36.6870   32.7630 C.2     9  ARG9        0.2260
      4  O         14.5120   35.5970   32.6200 O.2     9  ARG9       -0.2867
      5  CB        17.2410   36.3680   31.5660 C.3     9  ARG9        0.0307
      6  CG        16.7550   37.1340   30.3770 C.3     9  ARG9        0.0489
      7  CD        17.4880   36.7030   29.1280 C.3     9  ARG9        0.2205
      8  NE        17.0720   37.5190   27.9940 N.pl3   9  ARG9       -0.0865
      9  CZ        17.5950   37.4320   26.7800 C.cat   9  ARG9        0.5346
     10  NH1       18.5640   36.5590   26.5330 N.pl3   9  ARG9        0.1354
     11  NH2       17.1490   38.2240   25.8170 N.pl3   9  ARG9        0.1354
     12  N          7.6040   42.0010   23.6170 N.3    16  ASN16      -0.1240
     13  CA         8.2730   40.8830   22.9890 C.3    16  ASN16       0.1653
     14  C          7.3500   40.2450   21.9640 C.2    16  ASN16       0.2266
     15  O          7.7530   40.0280   20.8240 O.2    16  ASN16      -0.2867
     16  CB         8.6930   39.8480   24.0260 C.3    16  ASN16       0.1155
     17  CG        10.1010   40.0610   24.4940 C.2    16  ASN16       0.2627
     18  OD1       11.0050   40.1790   23.6760 O.2    16  ASN16      -0.2716
     19  ND2       10.3040   40.1140   25.8100 N.am   16  ASN16      -0.0877
     20  N          8.6580   44.2230   19.2150 N.3    20  ARG20      -0.1231
     21  CA         9.1950   45.5680   19.2230 C.3    20  ARG20       0.1694
     22  C         10.4480   45.6810   20.0650 C.2    20  ARG20       0.2592
     23  O         10.6750   44.8680   20.9620 O.2    20  ARG20      -0.2718
     24  CB         8.1490   46.5290   19.7630 C.3    20  ARG20       0.0321
     25  CG         6.8520   46.5210   18.9800 C.3    20  ARG20       0.0489
     26  CD         6.2710   47.9210   18.9440 C.3    20  ARG20       0.2205
     27  NE         5.3310   48.1940   20.0210 N.pl3  20  ARG20      -0.0865
     28  CZ         4.9830   49.4150   20.4160 C.cat  20  ARG20       0.5346
     29  NH1        5.5080   50.4870   19.8410 N.pl3  20  ARG20       0.1354
     30  NH2        4.0710   49.5640   21.3670 N.pl3  20  ARG20       0.1354
     31  N         11.2660   46.6880   19.7700 N.am   21  PHE21      -0.1962
     32  CA        12.4840   46.9270   20.5340 C.3    21  PHE21       0.1771
     33  C         12.0200   47.6090   21.8100 C.2    21  PHE21       0.2620
     34  O         11.3250   48.6230   21.7460 O.2    21  PHE21      -0.2715
     35  CB        13.4240   47.8540   19.7650 C.3    21  PHE21       0.0574
     36  CG        14.0660   47.2140   18.5610 C.ar   21  PHE21      -0.0200
     37  CD1       14.9850   46.1830   18.7120 C.ar   21  PHE21      -0.0042
     38  CD2       13.7590   47.6510   17.2760 C.ar   21  PHE21      -0.0042
     39  CE1       15.5870   45.6020   17.6080 C.ar   21  PHE21      -0.0003
     40  CE2       14.3580   47.0700   16.1630 C.ar   21  PHE21      -0.0003
     41  CZ        15.2740   46.0460   16.3300 C.ar   21  PHE21      -0.0000
     42  N         12.3840   47.0580   22.9650 N.am   22  SER22      -0.1936
     43  CA        11.9620   47.6380   24.2380 C.3    22  SER22       0.2055
     44  C         13.0080   48.5630   24.8460 C.2    22  SER22       0.2643
     45  O         12.7410   49.7270   25.1450 O.2    22  SER22      -0.2714
     46  CB        11.6320   46.5310   25.2430 C.3    22  SER22       0.2130
     47  OG        10.7310   45.5860   24.6950 O.3    22  SER22      -0.2179
     48  N         14.2050   48.0340   25.0380 N.am   23  GLY23      -0.1954
     49  CA        15.2550   48.8350   25.6260 C.3    23  GLY23       0.1869
     50  C         14.8230   49.3120   26.9940 C.2    23  GLY23       0.2309
     51  O         14.4840   48.5090   27.8570 O.2    23  GLY23      -0.2863
     52  N          9.1980   44.3140   34.0170 N.3    61  ARG61      -0.1245
     53  CA         9.4500   42.9470   33.6060 C.3    61  ARG61       0.1563
     54  C         10.4770   42.2220   34.4590 C.2    61  ARG61       0.2260
     55  O         10.3370   41.0260   34.7060 O.2    61  ARG61      -0.2867
     56  CB         9.8550   42.9010   32.1330 C.3    61  ARG61       0.0307
     57  CG        11.1420   43.6220   31.8100 C.3    61  ARG61       0.0489
     58  CD        11.3920   43.6830   30.3050 C.3    61  ARG61       0.2205
     59  NE        11.4970   45.0700   29.8500 N.pl3  61  ARG61      -0.0865
     60  CZ        12.4810   45.5320   29.0900 C.cat  61  ARG61       0.5346
     61  NH1       13.4550   44.7250   28.6880 N.pl3  61  ARG61       0.1354
     62  NH2       12.4970   46.8070   28.7510 N.pl3  61  ARG61       0.1354
     63  N         17.8800   47.0680   31.0730 N.3    88  GLU88      -0.1245
     64  CA        18.1350   46.4600   29.7890 C.3    88  GLU88       0.1567
     65  C         18.9330   47.5060   29.0450 C.2    88  GLU88       0.2260
     66  O         18.9270   48.6780   29.4130 O.2    88  GLU88      -0.2867
     67  CB        16.8100   46.2000   29.0670 C.3    88  GLU88       0.0388
     68  CG        16.9350   45.7020   27.6420 C.3    88  GLU88       0.1160
     69  CD        17.6780   44.3930   27.5510 C.2    88  GLU88       0.3649
     70  OE1       18.9220   44.4360   27.5300 O.co2  88  GLU88      -0.2457
     71  OE2       17.0290   43.3250   27.5130 O.co2  88  GLU88      -0.2457
     72  N         17.9700   51.0200   23.7610 N.3    91  TYR91      -0.1241
     73  CA        17.9580   50.8560   22.3140 C.3    91  TYR91       0.1605
     74  C         17.7870   52.1220   21.4960 C.2    91  TYR91       0.2264
     75  O         17.4210   52.0560   20.3230 O.2    91  TYR91      -0.2867
     76  CB        16.8720   49.8610   21.9160 C.3    91  TYR91       0.0534
     77  CG        17.4220   48.5650   21.3960 C.ar   91  TYR91      -0.0201
     78  CD1       17.8980   48.4590   20.0950 C.ar   91  TYR91      -0.0009
     79  CD2       17.4850   47.4470   22.2110 C.ar   91  TYR91      -0.0009
     80  CE1       18.4240   47.2600   19.6140 C.ar   91  TYR91       0.0417
     81  CE2       18.0100   46.2470   21.7500 C.ar   91  TYR91       0.0417
     82  CZ        18.4770   46.1550   20.4500 C.ar   91  TYR91       0.1957
     83  OH        18.9930   44.9530   19.9990 O.3    91  TYR91      -0.2866
     84  N         10.6850   45.2650   15.0760 N.3    99  LYS99      -0.1245
     85  CA        11.9210   44.6730   14.5850 C.3    99  LYS99       0.1561
     86  C         11.8720   44.2610   13.1180 C.2    99  LYS99       0.2260
     87  O         12.8120   44.5130   12.3710 O.2    99  LYS99      -0.2867
     88  CB        12.2930   43.4620   15.4310 C.3    99  LYS99       0.0271
     89  CG        12.5650   43.7860   16.8790 C.3    99  LYS99       0.0035
     90  CD        12.9630   42.5310   17.6230 C.3    99  LYS99       0.0206
     91  CE        13.1300   42.7760   19.1050 C.3    99  LYS99       0.1093
     92  NZ        13.5760   41.5310   19.7720 N.3    99  LYS99      -0.1314
     93  N         21.8680   45.0170   16.3870 N.3   115  ARG115     -0.1231
     94  CA        21.4310   43.9740   17.2960 C.3   115  ARG115      0.1694
     95  C         22.5050   43.0230   17.7980 C.2   115  ARG115      0.2591
     96  O         22.5100   42.6670   18.9700 O.2   115  ARG115     -0.2718
     97  CB        20.3200   43.1650   16.6390 C.3   115  ARG115      0.0321
     98  CG        19.1830   44.0140   16.1010 C.3   115  ARG115      0.0489
     99  CD        17.8580   43.3900   16.4690 C.3   115  ARG115      0.2205
    100  NE        17.7060   42.0440   15.9270 N.pl3 115  ARG115     -0.0865
    101  CZ        16.7730   41.1810   16.3240 C.cat 115  ARG115      0.5346
    102  NH1       15.9070   41.5180   17.2800 N.pl3 115  ARG115      0.1354
    103  NH2       16.6890   39.9830   15.7530 N.pl3 115  ARG115      0.1354
    104  N         23.4120   42.6040   16.9220 N.am  116  ARG116     -0.1980
    105  CA        24.4580   41.6690   17.3260 C.3   116  ARG116      0.1597
    106  C         25.8860   42.2150   17.4330 C.2   116  ARG116      0.2287
    107  O         26.7830   41.4740   17.8280 O.2   116  ARG116     -0.2864
    108  CB        24.4420   40.4550   16.4010 C.3   116  ARG116      0.0334
    109  CG        23.2370   39.5360   16.6120 C.3   116  ARG116      0.0492
    110  CD        23.3060   38.7300   17.9130 C.3   116  ARG116      0.2205
    111  NE        22.1950   37.7790   18.0270 N.pl3 116  ARG116     -0.0865
    112  CZ        21.0600   38.1100   18.6210 C.cat 116  ARG116      0.5346
    113  NH1       20.8450   39.3320   19.1130 N.pl3 116  ARG116      0.1354
    114  NH2       20.0890   37.2110   18.7100 N.pl3 116  ARG116      0.1354
    115  N         20.8490   41.7150   28.1550 N.3   187  ASN187     -0.1240
    116  CA        22.1190   42.4170   28.0270 C.3   187  ASN187      0.1653
    117  C         22.8330   42.8110   29.3140 C.2   187  ASN187      0.2266
    118  O         24.0590   42.7630   29.3800 O.2   187  ASN187     -0.2867
    119  CB        21.9400   43.6270   27.1200 C.3   187  ASN187      0.1155
    120  CG        21.4890   43.2300   25.7250 C.2   187  ASN187      0.2627
    121  OD1       22.0780   42.3470   25.0980 O.2   187  ASN187     -0.2716
    122  ND2       20.4380   43.8790   25.2330 N.am  187  ASN187     -0.0877
@<TRIPOS>BOND
     1    87    86    2
     2    86    85    1
     3    85    84    1
     4    85    88    1
     5    88    89    1
     6   103   101    1
     7   100   101    2
     8   100    99    1
     9    98    99    1
    10    98    97    1
    11    40    41   ar
    12    40    38   ar
    13   101   102    1
    14    41    39   ar
    15    93    94    1
    16   108   109    1
    17   108   105    1
    18   109   110    1
    19    97    94    1
    20    89    90    1
    21   104   105    1
    22   104    95   am
    23    38    36   ar
    24    94    95    1
    25   105   106    1
    26   106   107    2
    27    39    37   ar
    28    90    91    1
    29    95    96    2
    30   110   111    1
    31   111   112    2
    32    36    37   ar
    33    36    35    1
    34   112   114    1
    35   112   113    1
    36    26    25    1
    37    26    27    1
    38    25    24    1
    39    91    92    1
    40    20    21    1
    41    21    24    1
    42    21    22    1
    43    80    78   ar
    44    80    82   ar
    45    35    32    1
    46    31    22   am
    47    31    32    1
    48    29    28    1
    49    83    82    1
    50    27    28    2
    51    22    23    2
    52    78    77   ar
    53    75    74    2
    54    28    30    1
    55    82    81   ar
    56    32    33    1
    57    15    14    2
    58    77    76    1
    59    77    79   ar
    60    74    73    1
    61    34    33    2
    62    81    79   ar
    63    33    42   am
    64    76    73    1
    65    14    13    1
    66    73    72    1
    67    42    43    1
    68    13    12    1
    69    13    16    1
    70    18    17    2
    71    16    17    1
    72    43    44    1
    73    43    46    1
    74    17    19   am
    75    47    46    1
    76    44    48   am
    77    44    45    2
    78    48    49    1
    79   121   120    2
    80   122   120   am
    81    49    50    1
    82   120   119    1
    83    11     9    1
    84    10     9    1
    85     9     8    2
    86    50    51    2
    87   119   116    1
    88    71    69   ar
    89    70    69   ar
    90    69    68    1
    91    68    67    1
    92     8     7    1
    93   116   115    1
    94   116   117    1
    95    61    60    1
    96    62    60    1
    97    65    66    2
    98    65    64    1
    99    67    64    1
   100    60    59    2
   101     7     6    1
   102   117   118    2
   103    64    63    1
   104    59    58    1
   105    58    57    1
   106     6     5    1
   107     5     2    1
   108    57    56    1
   109    56    53    1
   110     4     3    2
   111     3     2    1
   112     2     1    1
   113    53    52    1
   114    53    54    1
   115    54    55    2
