@<TRIPOS>MOLECULE
tmp/1yjyA00.pdb
 153 145 0 0 0
SMALL
GASTEIGER

@<TRIPOS>ATOM
      1  N          7.7490   20.3520   10.9730 N.3    29  ILE29      -0.1245
      2  CA         7.5670   19.6340   12.2540 C.3    29  ILE29       0.1561
      3  C          8.7160   18.6690   12.3990 C.2    29  ILE29       0.2260
      4  O          9.0470   17.8710   11.5120 O.2    29  ILE29      -0.2867
      5  CB         6.1670   19.1100   12.3500 C.3    29  ILE29       0.0252
      6  CG1        5.2280   20.3050   12.6380 C.3    29  ILE29       0.0019
      7  CG2        6.0120   18.0360   13.4110 C.3    29  ILE29       0.0019
      8  CD1        3.7810   19.8710   12.5800 C.3    29  ILE29       0.0001
      9  N          9.4860   16.0730   14.1340 N.3    31  SER31      -0.1217
     10  CA         9.3400   14.6200   14.1120 C.3    31  SER31       0.1889
     11  C          8.8670   14.0620   12.7800 C.2    31  SER31       0.2288
     12  O          8.6090   12.8400   12.7140 O.2    31  SER31      -0.2866
     13  CB         8.3410   14.2240   15.2070 C.3    31  SER31       0.2089
     14  OG         7.1800   14.9920   14.9640 O.3    31  SER31      -0.2183
     15  N          4.4150    1.5480   18.3190 N.3    93  SER93      -0.1202
     16  CA         4.6750    2.9850   18.3630 C.3    93  SER93       0.2020
     17  C          5.8080    3.2520   19.3260 C.2    93  SER93       0.2619
     18  O          6.2520    2.3750   20.0660 O.2    93  SER93      -0.2717
     19  CB         3.3910    3.6230   18.9100 C.3    93  SER93       0.2103
     20  OG         3.3580    3.3610   20.3140 O.3    93  SER93      -0.2182
     21  N          6.3190    4.4750   19.3400 N.am   94  GLY94      -0.1942
     22  CA         7.3210    4.9220   20.2910 C.3    94  GLY94       0.2014
     23  C          6.7630    4.8190   21.6980 C.2    94  GLY94       0.2638
     24  O          7.4780    4.3780   22.5850 O.2    94  GLY94      -0.2714
     25  N          5.5210    5.1240   21.8890 N.am   95  ALA95      -0.1977
     26  CA         4.8510    5.0310   23.1750 C.3    95  ALA95       0.1597
     27  C          4.8760    3.5930   23.7050 C.2    95  ALA95       0.2287
     28  O          5.2120    3.3310   24.8640 O.2    95  ALA95      -0.2864
     29  CB         3.4160    5.5240   23.0830 C.3    95  ALA95       0.0319
     30  N          8.3570    2.5420   24.7200 N.3    98  ASN98      -0.1240
     31  CA         8.6570    2.9980   26.0630 C.3    98  ASN98       0.1653
     32  C          7.8430    2.2560   27.1110 C.2    98  ASN98       0.2266
     33  O          8.3490    1.8700   28.1670 O.2    98  ASN98      -0.2867
     34  CB         8.3720    4.5040   26.2030 C.3    98  ASN98       0.1155
     35  CG         9.3450    5.3220   25.3830 C.2    98  ASN98       0.2627
     36  OD1       10.2640    4.7520   24.8090 O.2    98  ASN98      -0.2716
     37  ND2        9.1260    6.6290   25.3360 N.am   98  ASN98      -0.0877
     38  N          9.8990   14.1570   26.7310 N.3   122  HIS122     -0.1226
     39  CA         8.6790   13.7790   26.0800 C.3   122  HIS122      0.1752
     40  C          7.5710   13.4140   27.0550 C.2   122  HIS122      0.2596
     41  O          7.7570   12.9920   28.1900 O.2   122  HIS122     -0.2718
     42  CB         8.9850   12.5300   25.2150 C.3   122  HIS122      0.0759
     43  CG         7.8180   12.2410   24.3320 C.ar  122  HIS122      0.0818
     44  ND1        7.0880   11.0930   24.4370 N.ar  122  HIS122     -0.2268
     45  CD2        7.2320   13.0220   23.3860 C.ar  122  HIS122      0.1154
     46  CE1        6.1090   11.1570   23.5540 C.ar  122  HIS122      0.1986
     47  NE2        6.1730   12.3080   22.9130 N.ar  122  HIS122     -0.2212
     48  N          6.3580   13.4470   26.5850 N.am  123  LEU123     -0.1966
     49  CA         5.1430   13.1000   27.2550 C.3   123  LEU123      0.1728
     50  C          5.2100   11.7400   27.9410 C.2   123  LEU123      0.2617
     51  O          4.8190   11.5880   29.1060 O.2   123  LEU123     -0.2715
     52  CB         4.0490   13.1250   26.1720 C.3   123  LEU123      0.0311
     53  CG         2.7080   12.6410   26.7410 C.3   123  LEU123      0.0022
     54  CD1        2.0160   13.8130   27.4550 C.3   123  LEU123      0.0001
     55  CD2        1.8760   11.9980   25.6640 C.3   123  LEU123      0.0001
     56  N          5.8130   10.7290   27.2950 N.am  124  THR124     -0.1937
     57  CA         6.0110    9.3860   27.7640 C.3   124  THR124      0.2028
     58  C          7.1470    9.2610   28.7610 C.2   124  THR124      0.2642
     59  O          7.4960    8.1600   29.2540 O.2   124  THR124     -0.2714
     60  CB         6.2130    8.3320   26.6410 C.3   124  THR124      0.1808
     61  OG1        7.3480    8.6330   25.8010 O.3   124  THR124     -0.2208
     62  CG2        4.9750    8.2900   25.7720 C.3   124  THR124      0.0379
     63  N          7.7030   10.4070   29.1410 N.am  125  HIS125     -0.1973
     64  CA         8.7410   10.4640   30.1370 C.3   125  HIS125      0.1656
     65  C          8.2220   11.1190   31.4200 C.2   125  HIS125      0.2291
     66  O          8.9270   11.8490   32.1390 O.2   125  HIS125     -0.2864
     67  CB         9.9690   11.1790   29.6640 C.3   125  HIS125      0.0771
     68  CG        10.5580   10.8580   28.3420 C.ar  125  HIS125      0.0820
     69  ND1       10.3400    9.6950   27.6290 N.ar  125  HIS125     -0.2267
     70  CD2       11.4230   11.5720   27.6030 C.ar  125  HIS125      0.1154
     71  CE1       11.0230    9.7260   26.4940 C.ar  125  HIS125      0.1986
     72  NE2       11.7060   10.8610   26.4640 N.ar  125  HIS125     -0.2212
     73  N         14.9650   12.9690   24.2990 N.3   171  ALA171     -0.1231
     74  CA        13.9880   14.0270   24.2200 C.3   171  ALA171      0.1694
     75  C         13.2910   14.2120   22.9110 C.2   171  ALA171      0.2592
     76  O         13.7910   13.7700   21.9040 O.2   171  ALA171     -0.2718
     77  CB        14.8720   15.3110   24.4020 C.3   171  ALA171      0.0304
     78  N         12.2160   14.9580   22.9660 N.am  172  SER172     -0.1952
     79  CA        11.4990   15.3710   21.7640 C.3   172  SER172      0.1924
     80  C         11.8160   16.8060   21.4010 C.2   172  SER172      0.2314
     81  O         11.4300   17.2330   20.3130 O.2   172  SER172     -0.2863
     82  CB        10.0120   15.1430   21.9900 C.3   172  SER172      0.2116
     83  OG         9.6680   15.8400   23.1700 O.3   172  SER172     -0.2180
     84  N         15.7880    6.9900   25.0530 N.3   197  ASP197     -0.1239
     85  CA        14.7440    7.0670   24.0450 C.3   197  ASP197      0.1674
     86  C         15.2950    7.8920   22.8920 C.2   197  ASP197      0.2266
     87  O         15.2560    9.1470   22.9270 O.2   197  ASP197     -0.2867
     88  CB        13.4940    7.6990   24.6160 C.3   197  ASP197      0.1410
     89  CG        12.3940    7.8770   23.6230 C.2   197  ASP197      0.3668
     90  OD1       12.5790    7.7470   22.4170 O.co2 197  ASP197     -0.2456
     91  OD2       11.2460    8.1680   23.9910 O.co2 197  ASP197     -0.2456
     92  N         14.1230    8.2140   19.8430 N.3   199  ALA199     -0.1231
     93  CA        13.1940    8.4100   18.7490 C.3   199  ALA199      0.1694
     94  C         13.5640    9.5310   17.7820 C.2   199  ALA199      0.2592
     95  O         13.5880    9.3400   16.5700 O.2   199  ALA199     -0.2718
     96  CB        11.8130    8.6760   19.2960 C.3   199  ALA199      0.0304
     97  N         13.7970   10.7510   18.2490 N.am  200  HIS200     -0.1976
     98  CA        14.0970   11.8630   17.3790 C.3   200  HIS200      0.1656
     99  C         15.3800   11.7480   16.6020 C.2   200  HIS200      0.2291
    100  O         15.3940   12.0980   15.4240 O.2   200  HIS200     -0.2864
    101  CB        14.0950   13.1460   18.2670 C.3   200  HIS200      0.0771
    102  CG        12.8550   13.9100   17.9870 C.ar  200  HIS200      0.0820
    103  ND1       11.7100   13.6900   18.6730 N.ar  200  HIS200     -0.2267
    104  CD2       12.5980   14.8670   17.0680 C.ar  200  HIS200      0.1154
    105  CE1       10.7730   14.4820   18.1920 C.ar  200  HIS200      0.1986
    106  NE2       11.3010   15.2130   17.2230 N.ar  200  HIS200     -0.2212
    107  N         11.1540    5.4810   17.8310 N.3   223  THR223     -0.1218
    108  CA        10.1050    5.4050   16.8310 C.3   223  THR223      0.1862
    109  C         10.8460    4.9600   15.5680 C.2   223  THR223      0.2287
    110  O         12.0620    5.1820   15.4840 O.2   223  THR223     -0.2866
    111  CB         9.4880    6.7740   16.5570 C.3   223  THR223      0.1770
    112  OG1       10.5250    7.7240   16.2800 O.3   223  THR223     -0.2211
    113  CG2        8.7230    7.2700   17.7680 C.3   223  THR223      0.0375
    114  N          9.6530    5.9920   12.5960 N.3   225  HIS225     -0.1226
    115  CA         9.3080    7.0880   11.7000 C.3   225  HIS225      0.1752
    116  C          9.9670    8.4560   11.8000 C.2   225  HIS225      0.2595
    117  O          9.4560    9.3810   11.0700 O.2   225  HIS225     -0.2718
    118  CB         7.8420    7.4310   11.8520 C.3   225  HIS225      0.0759
    119  CG         7.3490    7.6670   13.2310 C.ar  225  HIS225      0.0818
    120  ND1        7.0060    6.6040   14.0550 N.ar  225  HIS225     -0.2268
    121  CD2        7.0640    8.8050   13.9330 C.ar  225  HIS225      0.1154
    122  CE1        6.5270    7.0760   15.1920 C.ar  225  HIS225      0.1986
    123  NE2        6.5590    8.4120   15.1440 N.ar  225  HIS225     -0.2212
    124  N         10.8890    8.8220   12.6300 N.am  226  MET226     -0.1979
    125  CA        11.2970   10.2820   12.5460 C.3   226  MET226      0.1605
    126  C         12.4960   10.4570   11.6730 C.2   226  MET226      0.2287
    127  O         12.4020   10.2660   10.4610 O.2   226  MET226     -0.2864
    128  CB        11.4880   10.7910   13.9720 C.3   226  MET226      0.0413
    129  CG        10.1750   10.8330   14.7570 C.3   226  MET226      0.0598
    130  SD        10.5380   11.5060   16.3810 S.3   226  MET226     -0.1393
    131  CE         9.0730   11.1050   17.3010 C.3   226  MET226      0.0692
    132  N          5.3830    4.4010   10.5480 N.3   232  ARG232     -0.1245
    133  CA         5.0670    4.8040   11.9130 C.3   232  ARG232      0.1563
    134  C          4.9220    3.5950   12.8380 C.2   232  ARG232      0.2260
    135  O          4.1480    2.6550   12.6410 O.2   232  ARG232     -0.2867
    136  CB         3.8540    5.6780   11.7970 C.3   232  ARG232      0.0307
    137  CG         3.3500    6.1960   13.1390 C.3   232  ARG232      0.0489
    138  CD         2.2120    7.1850   12.8590 C.3   232  ARG232      0.2205
    139  NE         2.7080    8.2300   11.9710 N.pl3 232  ARG232     -0.0865
    140  CZ         3.3360    9.3100   12.4210 C.cat 232  ARG232      0.5346
    141  NH1        3.8240   10.2570   11.6050 N.pl3 232  ARG232      0.1354
    142  NH2        3.4690    9.4380   13.7270 N.pl3 232  ARG232      0.1354
    143  N          9.0950   24.8580   17.6490 N.3   357  ARG357     -0.1245
    144  CA        10.0700   23.8140   17.4090 C.3   357  ARG357      0.1563
    145  C         10.1730   23.5870   15.9130 C.2   357  ARG357      0.2260
    146  O          9.1380   23.5030   15.2780 O.2   357  ARG357     -0.2867
    147  CB         9.6950   22.5100   18.1190 C.3   357  ARG357      0.0307
    148  CG        10.7690   21.4350   17.9110 C.3   357  ARG357      0.0489
    149  CD        10.2560   20.1030   18.4860 C.3   357  ARG357      0.2205
    150  NE         9.0910   19.6570   17.7010 N.pl3 357  ARG357     -0.0865
    151  CZ         8.5680   18.4450   17.8480 C.cat 357  ARG357      0.5346
    152  NH1        9.1130   17.5610   18.7100 N.pl3 357  ARG357      0.1354
    153  NH2        7.4950   18.0840   17.1470 N.pl3 357  ARG357      0.1354
@<TRIPOS>BOND
     1   127   126    2
     2   132   133    1
     3     1     2    1
     4   117   116    2
     5     4     3    2
     6   141   140    1
     7   126   125    1
     8   115   116    1
     9   115   118    1
    10   115   114    1
    11   136   133    1
    12   136   137    1
    13   116   124   am
    14   118   119    1
    15   133   134    1
    16   139   140    2
    17   139   138    1
    18     2     5    1
    19     2     3    1
    20     5     6    1
    21     5     7    1
    22   140   142    1
    23   125   124    1
    24   125   128    1
    25     8     6    1
    26   135   134    2
    27    12    11    2
    28    11    10    1
    29   138   137    1
    30   119   121   ar
    31   119   120   ar
    32   121   123   ar
    33   128   129    1
    34   120   122   ar
    35    10     9    1
    36    10    13    1
    37   129   130    1
    38    14    13    1
    39   123   122   ar
    40   146   145    2
    41   100    99    2
    42   110   109    2
    43   109   108    1
    44   145   144    1
    45   112   111    1
    46   130   131    1
    47   111   108    1
    48   111   113    1
    49    95    94    2
    50    99    98    1
    51   108   107    1
    52   104   106   ar
    53   104   102   ar
    54   153   151    1
    55   106   105   ar
    56    98    97    1
    57    98   101    1
    58   144   143    1
    59   144   147    1
    60   150   151    2
    61   150   149    1
    62    94    97   am
    63    94    93    1
    64   151   152    1
    65   148   147    1
    66   148   149    1
    67   102   101    1
    68   102   103   ar
    69   105   103   ar
    70    15    16    1
    71    16    19    1
    72    16    17    1
    73    93    96    1
    74    93    92    1
    75    19    20    1
    76    17    21   am
    77    17    18    2
    78    21    22    1
    79    22    23    1
    80    81    80    2
    81    80    79    1
    82    23    25   am
    83    23    24    2
    84    79    82    1
    85    79    78    1
    86    25    26    1
    87    76    75    2
    88    82    83    1
    89    90    89   ar
    90    86    87    2
    91    86    85    1
    92    75    78   am
    93    75    74    1
    94    47    45   ar
    95    47    46   ar
    96    29    26    1
    97    26    27    1
    98    45    43   ar
    99    46    44   ar
   100    89    91   ar
   101    89    88    1
   102    27    28    2
   103    85    88    1
   104    85    84    1
   105    74    73    1
   106    74    77    1
   107    43    44   ar
   108    43    42    1
   109    30    31    1
   110    36    35    2
   111    42    39    1
   112    37    35   am
   113    35    34    1
   114    55    53    1
   115    62    60    1
   116    61    60    1
   117    31    34    1
   118    31    32    1
   119    39    38    1
   120    39    40    1
   121    52    53    1
   122    52    49    1
   123    72    71   ar
   124    72    70   ar
   125    71    69   ar
   126    48    40   am
   127    48    49    1
   128    60    57    1
   129    53    54    1
   130    40    41    2
   131    32    33    2
   132    49    50    1
   133    56    57    1
   134    56    50   am
   135    70    68   ar
   136    69    68   ar
   137    57    58    1
   138    50    51    2
   139    68    67    1
   140    58    63   am
   141    58    59    2
   142    63    64    1
   143    67    64    1
   144    64    65    1
   145    65    66    2
