@<TRIPOS>MOLECULE
tmp/1yk0B00.pdb
 87 79 0 0 0
SMALL
GASTEIGER

@<TRIPOS>ATOM
      1  N         30.7080   27.4320   40.1900 N.3    17  ASP17      -0.1225
      2  CA        29.8540   28.5680   40.5050 C.3    17  ASP17       0.1805
      3  C         29.7480   29.5450   39.3480 C.2    17  ASP17       0.2598
      4  O         29.1690   30.6230   39.4850 O.2    17  ASP17      -0.2718
      5  CB        30.3590   29.2790   41.7610 C.3    17  ASP17       0.1424
      6  CG        30.4510   28.3460   42.9510 C.2    17  ASP17       0.3668
      7  OD1       31.3840   27.5150   42.9830 O.co2  17  ASP17      -0.2456
      8  OD2       29.5840   28.4320   43.8440 O.co2  17  ASP17      -0.2456
      9  N         30.3160   29.1660   38.2060 N.am   18  SER18      -0.1952
     10  CA        30.2390   30.0050   37.0190 C.3    18  SER18       0.1924
     11  C         28.7720   30.0720   36.6150 C.2    18  SER18       0.2314
     12  O         28.3360   31.0360   35.9950 O.2    18  SER18      -0.2863
     13  CB        31.0420   29.3990   35.8680 C.3    18  SER18       0.2116
     14  OG        32.4340   29.5000   36.0940 O.3    18  SER18      -0.2180
     15  N         24.6660   30.2790   37.3160 N.3    20  LEU20      -0.1245
     16  CA        23.7790   30.9270   38.2670 C.3    20  LEU20       0.1561
     17  C         23.0000   29.9220   39.1250 C.2    20  LEU20       0.2260
     18  O         22.4400   30.2820   40.1550 O.2    20  LEU20      -0.2867
     19  CB        22.8000   31.8350   37.5240 C.3    20  LEU20       0.0270
     20  CG        23.4090   33.1270   36.9760 C.3    20  LEU20       0.0019
     21  CD1       22.3980   33.8350   36.0880 C.3    20  LEU20       0.0001
     22  CD2       23.8380   34.0240   38.1370 C.3    20  LEU20       0.0001
     23  N         25.0460   28.0140   45.1030 N.3    25  ARG25      -0.1245
     24  CA        24.0550   29.0740   45.0140 C.3    25  ARG25       0.1563
     25  C         22.6400   28.5650   45.3080 C.2    25  ARG25       0.2260
     26  O         21.8170   29.2920   45.8720 O.2    25  ARG25      -0.2867
     27  CB        24.0700   29.6990   43.6150 C.3    25  ARG25       0.0307
     28  CG        25.2350   30.6350   43.2750 C.3    25  ARG25       0.0489
     29  CD        24.8210   31.4800   42.0540 C.3    25  ARG25       0.2205
     30  NE        25.7510   32.5410   41.6740 N.pl3  25  ARG25      -0.0865
     31  CZ        26.9390   32.3270   41.1170 C.cat  25  ARG25       0.5346
     32  NH1       27.7190   33.3510   40.7950 N.pl3  25  ARG25       0.1354
     33  NH2       27.3530   31.0840   40.8930 N.pl3  25  ARG25       0.1354
     34  N         26.0900   39.3570   26.9140 N.3   212  SER212     -0.1202
     35  CA        25.7830   40.7600   27.0950 C.3   212  SER212      0.2020
     36  C         26.7300   41.6330   26.2840 C.2   212  SER212      0.2618
     37  O         26.2940   42.5380   25.5730 O.2   212  SER212     -0.2717
     38  CB        25.8750   41.1300   28.5650 C.3   212  SER212      0.2103
     39  OG        25.1380   42.3120   28.8120 O.3   212  SER212     -0.2182
     40  N         28.0260   41.3590   26.3770 N.am  213  ASP213     -0.1973
     41  CA        28.9980   42.1500   25.6350 C.3   213  ASP213      0.1709
     42  C         28.8060   42.0490   24.1260 C.2   213  ASP213      0.2293
     43  O         28.9970   43.0350   23.4030 O.2   213  ASP213     -0.2864
     44  CB        30.4290   41.7430   26.0050 C.3   213  ASP213      0.1436
     45  CG        30.7670   42.0590   27.4540 C.2   213  ASP213      0.3671
     46  OD1       30.4190   43.1690   27.9260 O.co2 213  ASP213     -0.2456
     47  OD2       31.3830   41.1960   28.1180 O.co2 213  ASP213     -0.2456
     48  N         20.3690   36.8230   34.5340 N.3   241  ASN241     -0.1240
     49  CA        21.4580   37.6030   35.1020 C.3   241  ASN241      0.1653
     50  C         21.0500   39.0530   35.3620 C.2   241  ASN241      0.2266
     51  O         20.9770   39.8650   34.4330 O.2   241  ASN241     -0.2867
     52  CB        22.6540   37.5570   34.1640 C.3   241  ASN241      0.1155
     53  CG        23.9220   37.9980   34.8350 C.2   241  ASN241      0.2627
     54  OD1       23.9250   38.9680   35.5880 O.2   241  ASN241     -0.2716
     55  ND2       25.0090   37.2900   34.5570 N.am  241  ASN241     -0.0877
     56  N         22.6270   41.3650   36.4840 N.3   243  SER243     -0.1202
     57  CA        23.6720   42.2630   36.0250 C.3   243  SER243      0.2020
     58  C         23.4230   42.7340   34.5870 C.2   243  SER243      0.2619
     59  O         23.6650   43.8920   34.2540 O.2   243  SER243     -0.2717
     60  CB        25.0320   41.5610   36.1000 C.3   243  SER243      0.2103
     61  OG        25.2640   41.0100   37.3870 O.3   243  SER243     -0.2182
     62  N         22.9370   41.8340   33.7390 N.am  244  SER244     -0.1951
     63  CA        22.6910   42.1630   32.3450 C.3   244  SER244      0.1924
     64  C         21.3740   42.8650   32.0180 C.2   244  SER244      0.2314
     65  O         21.2450   43.4470   30.9480 O.2   244  SER244     -0.2863
     66  CB        22.8230   40.9040   31.4970 C.3   244  SER244      0.2116
     67  OG        24.1180   40.3410   31.6390 O.3   244  SER244     -0.2180
     68  N         29.3900   50.6840   30.3690 N.3   252  ARG252     -0.1245
     69  CA        30.4250   49.7100   30.7000 C.3   252  ARG252      0.1563
     70  C         31.6650   50.4150   31.2500 C.2   252  ARG252      0.2260
     71  O         32.7580   49.8360   31.2710 O.2   252  ARG252     -0.2867
     72  CB        30.8300   48.9240   29.4550 C.3   252  ARG252      0.0307
     73  CG        29.7790   47.9750   28.9140 C.3   252  ARG252      0.0489
     74  CD        29.7970   46.6410   29.6420 C.3   252  ARG252      0.2205
     75  NE        28.9120   45.6700   29.0080 N.pl3 252  ARG252     -0.0865
     76  CZ        27.5940   45.8230   28.8920 C.cat 252  ARG252      0.5346
     77  NH1       26.8680   44.8840   28.2980 N.pl3 252  ARG252      0.1354
     78  NH2       26.9980   46.9090   29.3680 N.pl3 252  ARG252      0.1354
     79  N         26.7590   37.2700   44.5680 N.3   299  GLU299     -0.1245
     80  CA        26.4040   37.8830   43.2940 C.3   299  GLU299      0.1567
     81  C         25.7410   39.2250   43.5780 C.2   299  GLU299      0.2260
     82  O         26.3940   40.2700   43.5510 O.2   299  GLU299     -0.2867
     83  CB        25.4410   36.9700   42.5270 C.3   299  GLU299      0.0388
     84  CG        25.2270   37.3410   41.0620 C.3   299  GLU299      0.1160
     85  CD        26.5080   37.2710   40.2330 C.2   299  GLU299      0.3649
     86  OE1       27.3540   38.1860   40.3480 O.co2 299  GLU299     -0.2457
     87  OE2       26.6720   36.2960   39.4690 O.co2 299  GLU299     -0.2457
@<TRIPOS>BOND
     1    43    42    2
     2    42    41    1
     3    37    36    2
     4    41    44    1
     5    41    40    1
     6    44    45    1
     7    36    40   am
     8    36    35    1
     9    34    35    1
    10    35    38    1
    11    45    46   ar
    12    45    47   ar
    13    77    76    1
    14    38    39    1
    15    76    75    2
    16    76    78    1
    17    73    72    1
    18    73    74    1
    19    75    74    1
    20    72    69    1
    21    68    69    1
    22    69    70    1
    23    65    64    2
    24    70    71    2
    25    66    67    1
    26    66    63    1
    27    64    63    1
    28    63    62    1
    29    62    58   am
    30    52    53    1
    31    52    49    1
    32    59    58    2
    33    51    50    2
    34    48    49    1
    35    55    53   am
    36    58    57    1
    37    53    54    2
    38    49    50    1
    39    13    14    1
    40    13    10    1
    41    12    11    2
    42    57    60    1
    43    57    56    1
    44    21    20    1
    45    60    61    1
    46    11    10    1
    47    20    19    1
    48    20    22    1
    49    10     9    1
    50    15    16    1
    51    19    16    1
    52     9     3   am
    53    16    17    1
    54    17    18    2
    55     3     4    2
    56     3     2    1
    57    87    85   ar
    58     1     2    1
    59    85    86   ar
    60    85    84    1
    61     2     5    1
    62    32    31    1
    63    33    31    1
    64    84    83    1
    65    31    30    2
    66    30    29    1
    67     5     6    1
    68    29    28    1
    69    83    80    1
    70     6     7   ar
    71     6     8   ar
    72    28    27    1
    73    80    81    1
    74    80    79    1
    75    82    81    2
    76    27    24    1
    77    24    23    1
    78    24    25    1
    79    25    26    2
