@<TRIPOS>MOLECULE
tmp/1yk3G00.pdb
 145 138 0 0 0
SMALL
GASTEIGER

@<TRIPOS>ATOM
      1  N         27.8940   66.9360   66.3900 N.3    30  LEU30      -0.1245
      2  CA        27.9060   67.3270   67.7900 C.3    30  LEU30       0.1561
      3  C         26.6080   66.8480   68.4440 C.2    30  LEU30       0.2260
      4  O         25.5330   66.9230   67.8420 O.2    30  LEU30      -0.2867
      5  CB        28.0300   68.8540   67.9080 C.3    30  LEU30       0.0270
      6  CG        29.3870   69.4750   67.5330 C.3    30  LEU30       0.0019
      7  CD1       29.3030   70.9940   67.5950 C.3    30  LEU30       0.0001
      8  CD2       30.4660   68.9730   68.4910 C.3    30  LEU30       0.0001
      9  N         23.8840   70.7310   70.9930 N.3    34  TYR34      -0.1241
     10  CA        24.6750   71.2890   69.8960 C.3    34  TYR34       0.1605
     11  C         24.3660   70.5850   68.5830 C.2    34  TYR34       0.2264
     12  O         23.8990   69.4360   68.5610 O.2    34  TYR34      -0.2867
     13  CB        26.1760   71.1510   70.1800 C.3    34  TYR34       0.0534
     14  CG        26.6760   72.0700   71.2570 C.ar   34  TYR34      -0.0201
     15  CD1       26.8990   73.4200   70.9970 C.ar   34  TYR34      -0.0009
     16  CD2       26.8780   71.6020   72.5540 C.ar   34  TYR34      -0.0009
     17  CE1       27.3100   74.2890   72.0080 C.ar   34  TYR34       0.0417
     18  CE2       27.2840   72.4580   73.5720 C.ar   34  TYR34       0.0417
     19  CZ        27.4980   73.8000   73.2940 C.ar   34  TYR34       0.1957
     20  OH        27.8920   74.6470   74.3080 O.3    34  TYR34      -0.2866
     21  N         25.6430   70.2980   64.1670 N.3    36  LEU36      -0.1245
     22  CA        26.5190   70.6100   63.0380 C.3    36  LEU36       0.1561
     23  C         25.8340   70.1040   61.7830 C.2    36  LEU36       0.2260
     24  O         25.4290   68.9500   61.7180 O.2    36  LEU36      -0.2867
     25  CB        27.8790   69.9200   63.1760 C.3    36  LEU36       0.0270
     26  CG        28.9530   70.6540   63.9770 C.3    36  LEU36       0.0019
     27  CD1       30.2100   69.7870   64.0420 C.3    36  LEU36       0.0001
     28  CD2       29.2600   72.0230   63.3160 C.3    36  LEU36       0.0001
     29  N         27.0880   75.6090   62.6870 N.3    87  GLY87      -0.1210
     30  CA        27.0200   75.0750   64.0380 C.3    87  GLY87       0.1956
     31  C         25.8960   75.7360   64.8050 C.2    87  GLY87       0.2613
     32  O         25.6290   76.9240   64.6200 O.2    87  GLY87      -0.2717
     33  N         25.2430   74.9820   65.6810 N.am   88  SER88      -0.1938
     34  CA        24.1310   75.5300   66.4450 C.3    88  SER88       0.2055
     35  C         24.0740   75.0150   67.8720 C.2    88  SER88       0.2643
     36  O         24.6970   74.0090   68.2140 O.2    88  SER88      -0.2714
     37  CB        22.8190   75.1860   65.7480 C.3    88  SER88       0.2130
     38  OG        22.6550   73.7790   65.6730 O.3    88  SER88      -0.2179
     39  N         23.3170   75.7270   68.6990 N.am   89  TRP89      -0.1959
     40  CA        23.1190   75.3620   70.0970 C.3    89  TRP89       0.1771
     41  C         21.6670   75.6960   70.3930 C.2    89  TRP89       0.2619
     42  O         21.2690   76.8630   70.3110 O.2    89  TRP89      -0.2715
     43  CB        24.0320   76.1790   71.0120 C.3    89  TRP89       0.0590
     44  CG        24.0310   75.7220   72.4410 C.ar   89  TRP89       0.0006
     45  CD1       24.2620   74.4540   72.8980 C.ar   89  TRP89       0.0946
     46  CD2       23.8560   76.5420   73.6020 C.ar   89  TRP89       0.0152
     47  NE1       24.2490   74.4370   74.2730 N.ar   89  TRP89      -0.2442
     48  CE2       24.0020   75.7040   74.7320 C.ar   89  TRP89       0.0810
     49  CE3       23.5930   77.9070   73.7990 C.ar   89  TRP89       0.0012
     50  CZ2       23.8940   76.1850   76.0450 C.ar   89  TRP89       0.0191
     51  CZ3       23.4850   78.3900   75.1100 C.ar   89  TRP89       0.0001
     52  CH2       23.6360   77.5270   76.2130 C.ar   89  TRP89       0.0015
     53  N         20.8910   74.6670   70.7330 N.am   90  HIS90      -0.1973
     54  CA        19.4590   74.8020   71.0150 C.3    90  HIS90       0.1656
     55  C         18.7290   75.4310   69.8280 C.2    90  HIS90       0.2291
     56  O         17.9150   76.3480   69.9840 O.2    90  HIS90      -0.2864
     57  CB        19.2220   75.6290   72.2870 C.3    90  HIS90       0.0771
     58  CG        19.5060   74.8830   73.5560 C.ar   90  HIS90       0.0820
     59  ND1       20.3760   75.3520   74.5180 N.ar   90  HIS90      -0.2267
     60  CD2       19.0310   73.7030   74.0220 C.ar   90  HIS90       0.1154
     61  CE1       20.4250   74.4930   75.5210 C.ar   90  HIS90       0.1986
     62  NE2       19.6180   73.4830   75.2440 N.ar   90  HIS90      -0.2212
     63  N         19.7290   77.4610   67.6670 N.3    92  THR92      -0.1203
     64  CA        20.2230   78.7620   67.2290 C.3    92  THR92       0.1994
     65  C         21.5880   78.6610   66.5440 C.2    92  THR92       0.2618
     66  O         22.5860   78.2720   67.1680 O.2    92  THR92      -0.2717
     67  CB        20.3500   79.7410   68.4070 C.3    92  THR92       0.1784
     68  OG1       19.0920   79.8410   69.0790 O.3    92  THR92      -0.2211
     69  CG2       20.7610   81.1240   67.9090 C.3    92  THR92       0.0376
     70  N         21.6200   79.0170   65.2640 N.am   93  ASP93      -0.1959
     71  CA        22.8550   78.9870   64.4930 C.3    93  ASP93       0.1840
     72  C         23.7880   80.0480   65.0400 C.2    93  ASP93       0.2623
     73  O         23.3540   81.1670   65.3120 O.2    93  ASP93      -0.2715
     74  CB        22.5760   79.2910   63.0200 C.3    93  ASP93       0.1450
     75  CG        21.9100   78.1420   62.2980 C.2    93  ASP93       0.3671
     76  OD1       21.7820   77.0340   62.8740 O.co2  93  ASP93      -0.2456
     77  OD2       21.5270   78.3530   61.1320 O.co2  93  ASP93      -0.2456
     78  N         25.0640   79.7040   65.2080 N.am   94  GLY94      -0.1940
     79  CA        26.0080   80.6800   65.7190 C.3    94  GLY94       0.2014
     80  C         27.4490   80.4750   65.2870 C.2    94  GLY94       0.2639
     81  O         28.3300   81.2340   65.6890 O.2    94  GLY94      -0.2714
     82  N         27.6980   79.4540   64.4710 N.am   95  GLY95      -0.1954
     83  CA        29.0540   79.2020   64.0180 C.3    95  GLY95       0.1869
     84  C         29.1490   78.6900   62.5950 C.2    95  GLY95       0.2309
     85  O         28.2240   78.0420   62.0900 O.2    95  GLY95      -0.2863
     86  N         31.9260   76.7270   59.7960 N.3    97  LEU97      -0.1245
     87  CA        33.1790   75.9990   59.6630 C.3    97  LEU97       0.1561
     88  C         33.4180   75.5120   58.2490 C.2    97  LEU97       0.2260
     89  O         32.4690   75.2720   57.4950 O.2    97  LEU97      -0.2867
     90  CB        33.2040   74.7750   60.5810 C.3    97  LEU97       0.0270
     91  CG        33.1060   74.9190   62.1000 C.3    97  LEU97       0.0019
     92  CD1       31.6430   74.9250   62.4970 C.3    97  LEU97       0.0001
     93  CD2       33.8200   73.7540   62.7740 C.3    97  LEU97       0.0001
     94  N         32.9580   82.1890   64.9460 N.3   124  ILE124     -0.1245
     95  CA        31.8210   82.3500   65.8430 C.3   124  ILE124      0.1561
     96  C         31.1550   83.6570   65.4300 C.2   124  ILE124      0.2260
     97  O         31.8230   84.6920   65.3090 O.2   124  ILE124     -0.2867
     98  CB        32.2490   82.4650   67.3290 C.3   124  ILE124      0.0252
     99  CG1       33.0950   81.2520   67.7370 C.3   124  ILE124      0.0019
    100  CG2       31.0060   82.5730   68.2090 C.3   124  ILE124      0.0019
    101  CD1       32.4290   79.9200   67.4490 C.3   124  ILE124      0.0001
    102  N         28.6820   85.6850   67.0170 N.3   126  ASP126     -0.1239
    103  CA        28.5650   86.7060   68.0600 C.3   126  ASP126      0.1674
    104  C         29.8640   87.0700   68.7730 C.2   126  ASP126      0.2266
    105  O         30.4720   86.2300   69.4390 O.2   126  ASP126     -0.2867
    106  CB        27.5270   86.2570   69.0890 C.3   126  ASP126      0.1410
    107  CG        26.1510   86.0700   68.4800 C.2   126  ASP126      0.3668
    108  OD1       25.2640   85.5280   69.1700 O.co2 126  ASP126     -0.2456
    109  OD2       25.9520   86.4730   67.3140 O.co2 126  ASP126     -0.2456
    110  N         30.3250   86.0060   72.3700 N.3   129  LYS129     -0.1245
    111  CA        30.7030   84.6150   72.6330 C.3   129  LYS129      0.1561
    112  C         32.1960   84.3760   72.3800 C.2   129  LYS129      0.2260
    113  O         32.8300   83.5660   73.0610 O.2   129  LYS129     -0.2867
    114  CB        29.8560   83.6570   71.7860 C.3   129  LYS129      0.0271
    115  CG        28.3740   83.7230   72.1150 C.3   129  LYS129      0.0035
    116  CD        27.5600   82.7860   71.2430 C.3   129  LYS129      0.0206
    117  CE        26.0950   82.8050   71.6510 C.3   129  LYS129      0.1093
    118  NZ        25.5050   84.1730   71.5580 N.3   129  LYS129     -0.1314
    119  N         34.0190   80.7510   73.7820 N.3   134  PHE134     -0.1241
    120  CA        33.0980   79.7530   73.2670 C.3   134  PHE134      0.1605
    121  C         33.8090   78.7910   72.3100 C.2   134  PHE134      0.2264
    122  O         33.6120   77.5790   72.3640 O.2   134  PHE134     -0.2867
    123  CB        31.9590   80.4680   72.5440 C.3   134  PHE134      0.0534
    124  CG        30.7840   79.5940   72.2420 C.ar  134  PHE134     -0.0203
    125  CD1       30.2770   78.7310   73.2050 C.ar  134  PHE134     -0.0042
    126  CD2       30.1560   79.6620   71.0080 C.ar  134  PHE134     -0.0042
    127  CE1       29.1510   77.9450   72.9430 C.ar  134  PHE134     -0.0003
    128  CE2       29.0290   78.8800   70.7370 C.ar  134  PHE134     -0.0003
    129  CZ        28.5280   78.0220   71.7070 C.ar  134  PHE134     -0.0000
    130  N         34.4890   74.5290   72.4760 N.3   138  LEU138     -0.1245
    131  CA        33.9470   73.6180   71.4680 C.3   138  LEU138      0.1561
    132  C         34.9220   72.8870   70.5600 C.2   138  LEU138      0.2260
    133  O         34.6620   71.7420   70.1690 O.2   138  LEU138     -0.2867
    134  CB        32.9350   74.3720   70.5970 C.3   138  LEU138      0.0270
    135  CG        31.6350   74.7770   71.2960 C.3   138  LEU138      0.0019
    136  CD1       30.8770   75.7980   70.4520 C.3   138  LEU138      0.0001
    137  CD2       30.7870   73.5270   71.5350 C.3   138  LEU138      0.0001
    138  N         34.7090   69.1420   68.3750 N.3   142  ILE142     -0.1245
    139  CA        34.6280   69.1060   66.9190 C.3   142  ILE142      0.1561
    140  C         35.7810   68.2790   66.3530 C.2   142  ILE142      0.2260
    141  O         35.5810   67.4040   65.5230 O.2   142  ILE142     -0.2867
    142  CB        34.6910   70.5340   66.3560 C.3   142  ILE142      0.0252
    143  CG1       33.4900   71.3320   66.8640 C.3   142  ILE142      0.0019
    144  CG2       34.7630   70.5010   64.8340 C.3   142  ILE142      0.0019
    145  CD1       33.6120   72.8440   66.6450 C.3   142  ILE142      0.0001
@<TRIPOS>BOND
     1    89    88    2
     2    88    87    1
     3    87    86    1
     4    87    90    1
     5    90    91    1
     6    77    75   ar
     7    24    23    2
     8    23    22    1
     9    85    84    2
    10    91    92    1
    11    91    93    1
    12    75    76   ar
    13    75    74    1
    14    84    83    1
    15    29    30    1
    16    74    71    1
    17    22    25    1
    18    22    21    1
    19    25    26    1
    20    28    26    1
    21    26    27    1
    22    83    82    1
    23    30    31    1
    24    82    80   am
    25    71    72    1
    26    71    70    1
    27    32    31    2
    28    31    33   am
    29   144   142    1
    30    94    95    1
    31    72    78   am
    32    72    73    2
    33    78    79    1
    34    70    65   am
    35    80    81    2
    36    80    79    1
    37    97    96    2
    38    96    95    1
    39   141   140    2
    40    38    37    1
    41    33    34    1
    42    37    34    1
    43    95    98    1
    44   140   139    1
    45   142   143    1
    46   142   139    1
    47     1     2    1
    48    34    35    1
    49    65    66    2
    50    65    64    1
    51   145   143    1
    52   139   138    1
    53   102   103    1
    54    64    63    1
    55    64    67    1
    56   109   107   ar
    57    98    99    1
    58    98   100    1
    59   101    99    1
    60     6     7    1
    61     6     5    1
    62     6     8    1
    63     2     5    1
    64     2     3    1
    65     4     3    2
    66    35    36    2
    67    35    39   am
    68    69    67    1
    69   103   104    1
    70   103   106    1
    71    67    68    1
    72   107   106    1
    73   107   108   ar
    74    12    11    2
    75    11    10    1
    76    39    40    1
    77   104   105    2
    78    55    56    2
    79    55    54    1
    80    10    13    1
    81    10     9    1
    82    40    41    1
    83    40    43    1
    84   133   132    2
    85    13    14    1
    86    42    41    2
    87    41    53   am
    88   136   135    1
    89   132   131    1
    90   134   135    1
    91   134   131    1
    92    53    54    1
    93   128   126   ar
    94   128   129   ar
    95    15    14   ar
    96    15    17   ar
    97   126   124   ar
    98    43    44    1
    99    54    57    1
   100   116   117    1
   101   116   115    1
   102    14    16   ar
   103   135   137    1
   104   131   130    1
   105   118   117    1
   106   129   127   ar
   107   114   115    1
   108   114   111    1
   109    17    19   ar
   110   124   123    1
   111   124   125   ar
   112    57    58    1
   113   121   122    2
   114   121   120    1
   115   110   111    1
   116   112   111    1
   117   112   113    2
   118    44    45   ar
   119    44    46   ar
   120   123   120    1
   121    16    18   ar
   122    45    47   ar
   123   127   125   ar
   124   120   119    1
   125    19    18   ar
   126    19    20    1
   127    58    60   ar
   128    58    59   ar
   129    46    49   ar
   130    46    48   ar
   131    49    51   ar
   132    60    62   ar
   133    47    48   ar
   134    59    61   ar
   135    48    50   ar
   136    51    52   ar
   137    62    61   ar
   138    50    52   ar
