@<TRIPOS>MOLECULE
tmp/1yk7A00.pdb
 142 137 0 0 0
SMALL
GASTEIGER

@<TRIPOS>ATOM
      1  N         85.5670 -124.3020   23.5370 N.3    19  GLN19      -0.1245
      2  CA        84.1700 -124.5470   23.1700 C.3    19  GLN19       0.1566
      3  C         83.4820 -123.3900   22.4650 C.2    19  GLN19       0.2260
      4  O         82.3280 -123.5050   22.0630 O.2    19  GLN19      -0.2867
      5  CB        83.3480 -124.9260   24.4060 C.3    19  GLN19       0.0367
      6  CG        83.2940 -123.7570   25.3810 C.3    19  GLN19       0.0905
      7  CD        82.4920 -124.1550   26.6040 C.2    19  GLN19       0.2608
      8  OE1       81.2650 -124.2050   26.5680 O.2    19  GLN19      -0.2717
      9  NE2       83.1850 -124.4500   27.6910 N.am   19  GLN19      -0.0878
     10  N         77.3060 -123.5220   24.3760 N.3    23  GLY23      -0.1225
     11  CA        77.2950 -123.9880   25.7550 C.3    23  GLY23       0.1811
     12  C         77.4640 -125.4980   25.8380 C.2    23  GLY23       0.2280
     13  O         76.6380 -126.2110   26.4110 O.2    23  GLY23      -0.2866
     14  N         80.0520 -127.1580   27.3330 N.3    25  CYS25      -0.1221
     15  CA        81.0500 -127.5600   28.3140 C.3    25  CYS25       0.1808
     16  C         80.8270 -129.0130   28.7140 C.2    25  CYS25       0.2601
     17  O         81.7880 -129.7520   28.9180 O.2    25  CYS25      -0.2717
     18  CB        81.0070 -126.6580   29.5590 C.3    25  CYS25       0.0970
     19  SG        79.3490 -126.6570   30.2990 S.3    25  CYS25      -0.0800
     20  N         79.5640 -129.4300   28.8050 N.am   26  TRP26      -0.1976
     21  CA        79.2650 -130.8010   29.1910 C.3    26  TRP26       0.1640
     22  C         79.8260 -131.7910   28.1870 C.2    26  TRP26       0.2290
     23  O         80.1260 -132.9300   28.5400 O.2    26  TRP26      -0.2864
     24  CB        77.7550 -131.0290   29.3470 C.3    26  TRP26       0.0576
     25  CG        77.0260 -130.7100   28.0770 C.ar   26  TRP26       0.0006
     26  CD1       76.5280 -129.4910   27.6980 C.ar   26  TRP26       0.0946
     27  CD2       76.7110 -131.6200   27.0140 C.ar   26  TRP26       0.0152
     28  NE1       75.9230 -129.5900   26.4680 N.ar   26  TRP26      -0.2442
     29  CE2       76.0200 -130.8840   26.0250 C.ar   26  TRP26       0.0810
     30  CE3       76.9450 -132.9860   26.8010 C.ar   26  TRP26       0.0012
     31  CZ2       75.5610 -131.4670   24.8420 C.ar   26  TRP26       0.0191
     32  CZ3       76.4890 -133.5640   25.6260 C.ar   26  TRP26       0.0001
     33  CH2       75.8040 -132.8030   24.6610 C.ar   26  TRP26       0.0015
     34  N         69.3640 -136.2570   24.2200 N.3    59  GLU59      -0.1231
     35  CA        68.8760 -136.2440   25.5930 C.3    59  GLU59       0.1699
     36  C         69.3020 -134.9480   26.2540 C.2    59  GLU59       0.2592
     37  O         68.8180 -134.6080   27.3310 O.2    59  GLU59      -0.2718
     38  CB        69.4240 -137.4170   26.3980 C.3    59  GLU59       0.0402
     39  CG        68.6530 -138.6720   26.0550 C.3    59  GLU59       0.1161
     40  CD        69.2550 -139.3500   24.8370 C.2    59  GLU59       0.3649
     41  OE1       68.7720 -140.4530   24.4960 O.co2  59  GLU59      -0.2457
     42  OE2       70.2000 -138.7930   24.2300 O.co2  59  GLU59      -0.2457
     43  N         70.2260 -134.2430   25.6070 N.am   60  ASN60      -0.1960
     44  CA        70.7170 -132.9590   26.0970 C.3    60  ASN60       0.1819
     45  C         70.1730 -131.8580   25.2010 C.2    60  ASN60       0.2621
     46  O         69.4090 -132.1230   24.2680 O.2    60  ASN60      -0.2715
     47  CB        72.2430 -132.9030   26.0910 C.3    60  ASN60       0.1195
     48  CG        72.8000 -133.8040   27.1710 C.2    60  ASN60       0.2630
     49  OD1       72.2700 -133.8700   28.2810 O.2    60  ASN60      -0.2716
     50  ND2       73.8870 -134.4920   26.8570 N.am   60  ASN60      -0.0877
     51  N         70.5890 -130.6250   25.4700 N.am   61  ASP61      -0.1971
     52  CA        70.1100 -129.4770   24.7140 C.3    61  ASP61       0.1709
     53  C         71.2020 -128.8210   23.8580 C.2    61  ASP61       0.2293
     54  O         71.2430 -127.5940   23.7110 O.2    61  ASP61      -0.2864
     55  CB        69.4890 -128.4770   25.7010 C.3    61  ASP61       0.1436
     56  CG        68.7640 -127.3600   24.9880 C.2    61  ASP61       0.3671
     57  OD1       68.0210 -127.6300   24.0170 O.co2  61  ASP61      -0.2456
     58  OD2       68.9300 -126.2000   25.4190 O.co2  61  ASP61      -0.2456
     59  N         72.7680 -125.4690   24.2140 N.3    64  GLY64      -0.1210
     60  CA        72.0370 -124.9040   25.3280 C.3    64  GLY64       0.1956
     61  C         72.4480 -125.4880   26.6690 C.2    64  GLY64       0.2612
     62  O         72.3310 -124.8320   27.7080 O.2    64  GLY64      -0.2717
     63  N         72.9340 -126.7230   26.6480 N.am   65  GLY65      -0.1942
     64  CA        73.3510 -127.3720   27.8770 C.3    65  GLY65       0.2014
     65  C         73.1090 -128.8640   27.7900 C.2    65  GLY65       0.2639
     66  O         72.6000 -129.3560   26.7820 O.2    65  GLY65      -0.2714
     67  N         73.4710 -129.5870   28.8430 N.am   66  GLY66      -0.1939
     68  CA        73.2760 -131.0230   28.8530 C.3    66  GLY66       0.2014
     69  C         73.9750 -131.6510   30.0390 C.2    66  GLY66       0.2639
     70  O         74.6790 -130.9730   30.7890 O.2    66  GLY66      -0.2714
     71  N         73.7870 -132.9500   30.2200 N.am   67  TYR67      -0.1959
     72  CA        74.4170 -133.6360   31.3320 C.3    67  TYR67       0.1771
     73  C         75.4750 -134.6320   30.8710 C.2    67  TYR67       0.2619
     74  O         75.3070 -135.3030   29.8500 O.2    67  TYR67      -0.2715
     75  CB        73.3620 -134.3670   32.1620 C.3    67  TYR67       0.0574
     76  CG        72.4370 -133.3710   32.8220 C.ar   67  TYR67      -0.0198
     77  CD1       71.1820 -133.0920   32.2860 C.ar   67  TYR67      -0.0009
     78  CD2       72.8100 -132.7250   34.0020 C.ar   67  TYR67      -0.0009
     79  CE1       70.3110 -132.1920   32.9200 C.ar   67  TYR67       0.0417
     80  CE2       71.9520 -131.8240   34.6410 C.ar   67  TYR67       0.0417
     81  CZ        70.7060 -131.5670   34.0960 C.ar   67  TYR67       0.1957
     82  OH        69.8520 -130.7080   34.7390 O.3    67  TYR67      -0.2866
     83  N         76.5680 -134.7230   31.6240 N.am   68  MET68      -0.1977
     84  CA        77.6230 -135.6600   31.2890 C.3    68  MET68       0.1605
     85  C         77.0450 -137.0700   31.2950 C.2    68  MET68       0.2287
     86  O         77.4630 -137.9220   30.5130 O.2    68  MET68      -0.2864
     87  CB        78.7780 -135.5810   32.2950 C.3    68  MET68       0.0413
     88  CG        79.6760 -134.3890   31.9970 C.3    68  MET68       0.0598
     89  SD        78.9890 -132.8960   32.7480 S.3    68  MET68      -0.1393
     90  CE        79.6290 -133.0560   34.4020 C.3    68  MET68       0.0692
     91  N         74.0050 -138.2290   30.3520 N.3    70  ASN70      -0.1240
     92  CA        73.3570 -138.5840   29.0910 C.3    70  ASN70       0.1653
     93  C         74.4500 -138.7760   28.0510 C.2    70  ASN70       0.2266
     94  O         74.3750 -139.6700   27.2080 O.2    70  ASN70      -0.2867
     95  CB        72.4020 -137.4830   28.6230 C.3    70  ASN70       0.1155
     96  CG        71.3630 -137.1710   29.6770 C.2    70  ASN70       0.2627
     97  OD1       70.9390 -138.0440   30.4350 O.2    70  ASN70      -0.2716
     98  ND2       70.9230 -135.9160   29.7130 N.am   70  ASN70      -0.0877
     99  N         80.9100 -130.6790   37.7240 N.3   134  ALA134     -0.1245
    100  CA        80.1480 -129.4670   37.4670 C.3   134  ALA134      0.1562
    101  C         80.4950 -128.4780   38.5770 C.2   134  ALA134      0.2260
    102  O         80.5590 -128.8590   39.7500 O.2   134  ALA134     -0.2867
    103  CB        78.6570 -129.7770   37.4820 C.3   134  ALA134      0.0290
    104  N         75.4710 -124.7340   40.1110 N.3   160  LEU160     -0.1231
    105  CA        76.3090 -125.3880   39.1010 C.3   160  LEU160      0.1693
    106  C         75.9320 -124.8500   37.7160 C.2   160  LEU160      0.2592
    107  O         74.7560 -124.8440   37.3520 O.2   160  LEU160     -0.2718
    108  CB        76.0900 -126.9030   39.1370 C.3   160  LEU160      0.0284
    109  CG        76.4230 -127.4430   40.5340 C.3   160  LEU160      0.0019
    110  CD1       76.0310 -128.9130   40.6100 C.3   160  LEU160      0.0001
    111  CD2       77.9080 -127.2640   40.8320 C.3   160  LEU160      0.0001
    112  N         76.9200 -124.4120   36.9380 N.am  161  ASN161     -0.1960
    113  CA        76.6350 -123.8460   35.6130 C.3   161  ASN161      0.1819
    114  C         77.7300 -124.0580   34.5690 C.2   161  ASN161      0.2621
    115  O         77.7080 -123.4440   33.5010 O.2   161  ASN161     -0.2715
    116  CB        76.3600 -122.3420   35.7490 C.3   161  ASN161      0.1195
    117  CG        77.4560 -121.7010   36.5980 C.2   161  ASN161      0.2630
    118  OD1       78.6310 -121.7110   36.2360 O.2   161  ASN161     -0.2716
    119  ND2       77.0660 -121.1460   37.7390 N.am  161  ASN161     -0.0877
    120  N         78.6830 -124.9280   34.8790 N.am  162  HIS162     -0.1959
    121  CA        79.7810 -125.1980   33.9640 C.3   162  HIS162      0.1787
    122  C         80.3100 -126.6120   34.2170 C.2   162  HIS162      0.2620
    123  O         80.3480 -127.0800   35.3520 O.2   162  HIS162     -0.2715
    124  CB        80.8800 -124.1460   34.1790 C.3   162  HIS162      0.0785
    125  CG        81.8550 -124.1400   33.0430 C.ar  162  HIS162      0.0821
    126  ND1       81.4640 -124.0340   31.7250 N.ar  162  HIS162     -0.2267
    127  CD2       83.2080 -124.1970   33.0300 C.ar  162  HIS162      0.1154
    128  CE1       82.5340 -124.0260   30.9490 C.ar  162  HIS162      0.1986
    129  NE2       83.6050 -124.1240   31.7170 N.ar  162  HIS162     -0.2212
    130  N         80.6960 -127.2930   33.1460 N.am  163  ALA163     -0.1977
    131  CA        81.2210 -128.6490   33.2470 C.3   163  ALA163      0.1597
    132  C         82.6800 -128.6300   32.8320 C.2   163  ALA163      0.2287
    133  O         83.0300 -128.1180   31.7700 O.2   163  ALA163     -0.2864
    134  CB        80.4290 -129.5960   32.3490 C.3   163  ALA163      0.0319
    135  N         77.9620 -132.8740   41.3140 N.3   209  LEU209     -0.1245
    136  CA        77.5520 -133.5770   40.1100 C.3   209  LEU209      0.1561
    137  C         78.7900 -134.1490   39.4260 C.2   209  LEU209      0.2260
    138  O         79.1080 -133.7920   38.2880 O.2   209  LEU209     -0.2867
    139  CB        76.8260 -132.6070   39.1710 C.3   209  LEU209      0.0270
    140  CG        76.0590 -133.3850   38.0970 C.3   209  LEU209      0.0019
    141  CD1       74.9030 -134.1500   38.7380 C.3   209  LEU209      0.0001
    142  CD2       75.5340 -132.4110   37.0380 C.3   209  LEU209      0.0001
@<TRIPOS>BOND
     1     4     3    2
     2     3     2    1
     3     2     1    1
     4     2     5    1
     5    54    53    2
     6    53    52    1
     7    57    56   ar
     8    59    60    1
     9    34    35    1
    10    42    40   ar
    11    46    45    2
    12    10    11    1
    13     5     6    1
    14    41    40   ar
    15    33    31   ar
    16    33    32   ar
    17    52    51    1
    18    52    55    1
    19    40    39    1
    20    31    29   ar
    21    56    58   ar
    22    56    55    1
    23    45    51   am
    24    45    44    1
    25    60    61    1
    26     6     7    1
    27    35    36    1
    28    35    38    1
    29    43    44    1
    30    43    36   am
    31    32    30   ar
    32    11    12    1
    33    12    13    2
    34    29    28   ar
    35    29    27   ar
    36    39    38    1
    37    47    44    1
    38    47    48    1
    39    36    37    2
    40    28    26   ar
    41     8     7    2
    42     7     9   am
    43    63    61   am
    44    63    64    1
    45    61    62    2
    46    66    65    2
    47    30    27   ar
    48    50    48   am
    49    27    25   ar
    50    48    49    2
    51    94    93    2
    52    14    15    1
    53    26    25   ar
    54    65    64    1
    55    65    67   am
    56    93    92    1
    57    25    24    1
    58    22    23    2
    59    22    21    1
    60    15    16    1
    61    15    18    1
    62    95    92    1
    63    95    96    1
    64    16    20   am
    65    16    17    2
    66    20    21    1
    67    67    68    1
    68    68    69    1
    69    92    91    1
    70    21    24    1
    71    18    19    1
    72    96    98   am
    73    96    97    2
    74    74    73    2
    75    69    71   am
    76    69    70    2
    77    71    72    1
    78    86    85    2
    79    73    72    1
    80    73    83   am
    81   128   129   ar
    82   128   126   ar
    83    84    85    1
    84    84    83    1
    85    84    87    1
    86    72    75    1
    87   129   127   ar
    88   126   125   ar
    89   133   132    2
    90    88    87    1
    91    88    89    1
    92    75    76    1
    93    77    76   ar
    94    77    79   ar
    95   134   131    1
    96    89    90    1
    97    76    78   ar
    98   132   131    1
    99    79    81   ar
   100   127   125   ar
   101   125   124    1
   102   130   131    1
   103   130   122   am
   104   115   114    2
   105   121   124    1
   106   121   122    1
   107   121   120    1
   108    78    80   ar
   109    81    80   ar
   110    81    82    1
   111   122   123    2
   112   114   120   am
   113   114   113    1
   114   113   116    1
   115   113   112    1
   116   116   117    1
   117   118   117    2
   118   117   119   am
   119   112   106   am
   120   142   140    1
   121   107   106    2
   122   100   103    1
   123   100    99    1
   124   100   101    1
   125   106   105    1
   126   140   141    1
   127   140   139    1
   128   138   137    2
   129   101   102    2
   130   105   108    1
   131   105   104    1
   132   108   109    1
   133   139   136    1
   134   137   136    1
   135   136   135    1
   136   109   110    1
   137   109   111    1
