@<TRIPOS>MOLECULE
tmp/1yk8A00.pdb
 109 106 0 0 0
SMALL
GASTEIGER

@<TRIPOS>ATOM
      1  N         82.7580  -13.8260  130.9900 N.3    17  GLN17      -0.1245
      2  CA        81.6680  -14.8340  131.0290 C.3    17  GLN17       0.1566
      3  C         81.5670  -15.6570  129.7680 C.2    17  GLN17       0.2260
      4  O         80.9740  -16.7330  129.7680 O.2    17  GLN17      -0.2867
      5  CB        80.3300  -14.1660  131.2610 C.3    17  GLN17       0.0367
      6  CG        79.8560  -13.2850  130.1670 C.3    17  GLN17       0.0905
      7  CD        78.5950  -12.5370  130.6090 C.2    17  GLN17       0.2608
      8  OE1       77.4170  -13.1570  130.3990 O.2    17  GLN17      -0.2717
      9  NE2       78.6830  -11.4440  131.1700 N.am   17  GLN17      -0.0878
     10  N         75.1950  -16.8540  129.6620 N.3    21  GLY21      -0.1225
     11  CA        74.4730  -15.7590  130.3060 C.3    21  GLY21       0.1811
     12  C         74.4880  -15.7750  131.8590 C.2    21  GLY21       0.2280
     13  O         73.4310  -15.8380  132.5340 O.2    21  GLY21      -0.2866
     14  N         76.2620  -13.4780  133.6850 N.3    23  CYS23      -0.1221
     15  CA        76.7120  -12.1920  134.1930 C.3    23  CYS23       0.1808
     16  C         76.2960  -12.0660  135.6400 C.2    23  CYS23       0.2601
     17  O         77.0860  -11.5900  136.4530 O.2    23  CYS23      -0.2717
     18  CB        76.1560  -11.0270  133.3980 C.3    23  CYS23       0.0970
     19  SG        74.3880  -10.9960  133.5810 S.3    23  CYS23      -0.0800
     20  N         75.0980  -12.5350  135.9840 N.am   24  TRP24      -0.1976
     21  CA        74.6620  -12.4840  137.3790 C.3    24  TRP24       0.1640
     22  C         75.5610  -13.2210  138.4070 C.2    24  TRP24       0.2290
     23  O         75.5680  -12.8820  139.5750 O.2    24  TRP24      -0.2864
     24  CB        73.2450  -12.9990  137.5060 C.3    24  TRP24       0.0576
     25  CG        73.0880  -14.4400  137.1790 C.ar   24  TRP24       0.0006
     26  CD1       72.7070  -14.9610  135.9840 C.ar   24  TRP24       0.0946
     27  CD2       73.3150  -15.5650  138.0660 C.ar   24  TRP24       0.0152
     28  NE1       72.6980  -16.3350  136.0510 N.ar   24  TRP24      -0.2442
     29  CE2       73.0300  -16.7340  137.3250 C.ar   24  TRP24       0.0810
     30  CE3       73.7270  -15.6990  139.4160 C.ar   24  TRP24       0.0012
     31  CZ2       73.1250  -18.0220  137.8850 C.ar   24  TRP24       0.0191
     32  CZ3       73.8470  -16.9580  139.9530 C.ar   24  TRP24       0.0001
     33  CH2       73.5330  -18.1130  139.1870 C.ar   24  TRP24       0.0015
     34  N         70.9830  -18.9120  131.1230 N.3    62  GLY62      -0.1210
     35  CA        69.8660  -18.1730  130.5870 C.3    62  GLY62       0.1956
     36  C         69.4260  -17.0060  131.4520 C.2    62  GLY62       0.2612
     37  O         68.3150  -16.5450  131.2830 O.2    62  GLY62      -0.2717
     38  N         70.2870  -16.5090  132.3620 N.am   63  GLY63      -0.1942
     39  CA        69.9320  -15.4090  133.2610 C.3    63  GLY63       0.2014
     40  C         69.6600  -15.7950  134.7220 C.2    63  GLY63       0.2639
     41  O         69.5520  -16.9650  135.0580 O.2    63  GLY63      -0.2714
     42  N         69.5590  -14.7930  135.5930 N.am   64  GLY64      -0.1939
     43  CA        69.3530  -15.0200  137.0170 C.3    64  GLY64       0.2014
     44  C         69.5770  -13.8010  137.8930 C.2    64  GLY64       0.2639
     45  O         70.1270  -12.7970  137.4440 O.2    64  GLY64      -0.2714
     46  N         69.1500  -13.9010  139.1550 N.am   65  TYR65      -0.1959
     47  CA        69.2400  -12.8130  140.1380 C.3    65  TYR65       0.1771
     48  C         70.3150  -13.1290  141.1630 C.2    65  TYR65       0.2619
     49  O         70.3480  -14.2460  141.7280 O.2    65  TYR65      -0.2715
     50  CB        67.8720  -12.6120  140.8640 C.3    65  TYR65       0.0574
     51  CG        66.8150  -12.0570  139.9300 C.ar   65  TYR65      -0.0198
     52  CD1       67.0040  -10.8270  139.3310 C.ar   65  TYR65      -0.0009
     53  CD2       65.6920  -12.7890  139.5600 C.ar   65  TYR65      -0.0009
     54  CE1       66.1090  -10.2930  138.4430 C.ar   65  TYR65       0.0417
     55  CE2       64.7570  -12.2520  138.6420 C.ar   65  TYR65       0.0417
     56  CZ        65.0110  -10.9820  138.1000 C.ar   65  TYR65       0.1957
     57  OH        64.2190  -10.3510  137.1940 O.3    65  TYR65      -0.2866
     58  N         71.1500  -12.1120  141.4250 N.am   66  MET66      -0.1977
     59  CA        72.1240  -12.1130  142.5250 C.3    66  MET66       0.1605
     60  C         71.5110  -12.2450  143.9530 C.2    66  MET66       0.2287
     61  O         72.1480  -12.7530  144.8620 O.2    66  MET66      -0.2864
     62  CB        72.9380  -10.8280  142.5040 C.3    66  MET66       0.0413
     63  CG        73.6950  -10.6050  141.2360 C.3    66  MET66       0.0598
     64  SD        72.5440  -10.2800  139.8100 S.3    66  MET66      -0.1393
     65  CE        72.4060   -8.4530  139.8710 C.3    66  MET66       0.0692
     66  N         72.2920   -4.0360  138.2420 N.3   132  ALA132     -0.1245
     67  CA        71.9410   -4.4950  136.9170 C.3   132  ALA132      0.1562
     68  C         71.5530   -3.3070  135.9940 C.2   132  ALA132      0.2260
     69  O         71.2020   -2.2290  136.4680 O.2   132  ALA132     -0.2867
     70  CB        70.8330   -5.5090  137.0230 C.3   132  ALA132      0.0290
     71  N         65.9150   -3.8400  131.8460 N.3   158  LEU158     -0.1231
     72  CA        67.0640   -4.3930  132.5300 C.3   158  LEU158      0.1693
     73  C         67.4030   -5.7080  131.8700 C.2   158  LEU158      0.2592
     74  O         66.4920   -6.4860  131.6050 O.2   158  LEU158     -0.2718
     75  CB        66.7950   -4.6120  134.0240 C.3   158  LEU158      0.0284
     76  CG        66.4620   -3.3530  134.8120 C.3   158  LEU158      0.0019
     77  CD1       66.6250   -3.6710  136.2650 C.3   158  LEU158      0.0001
     78  CD2       67.3330   -2.1790  134.4420 C.3   158  LEU158      0.0001
     79  N         68.7040   -5.9190  131.6100 N.am  159  ASN159     -0.1960
     80  CA        69.1630   -7.1070  130.9070 C.3   159  ASN159      0.1819
     81  C         70.6550   -7.4670  131.1080 C.2   159  ASN159      0.2621
     82  O         71.1680   -8.3580  130.4750 O.2   159  ASN159     -0.2715
     83  CB        68.8420   -6.9750  129.4190 C.3   159  ASN159      0.1195
     84  CG        69.4350   -5.7190  128.8290 C.2   159  ASN159      0.2630
     85  OD1       70.6090   -5.3510  129.1010 O.2   159  ASN159     -0.2716
     86  ND2       68.6260   -5.0220  128.0650 N.am  159  ASN159     -0.0877
     87  N         71.3300   -6.8190  132.0340 N.am  160  HIS160     -0.1959
     88  CA        72.7180   -7.1730  132.2610 C.3   160  HIS160      0.1787
     89  C         73.1150   -6.8080  133.6610 C.2   160  HIS160      0.2620
     90  O         72.8530   -5.7290  134.0650 O.2   160  HIS160     -0.2715
     91  CB        73.6670   -6.5200  131.2360 C.3   160  HIS160      0.0785
     92  CG        75.0460   -7.1130  131.2630 C.ar  160  HIS160      0.0821
     93  ND1       75.3260   -8.3790  130.7890 N.ar  160  HIS160     -0.2267
     94  CD2       76.2230   -6.6230  131.7190 C.ar  160  HIS160      0.1154
     95  CE1       76.6010   -8.6570  130.9830 C.ar  160  HIS160      0.1986
     96  NE2       77.1740   -7.6010  131.5350 N.ar  160  HIS160     -0.2212
     97  N         73.7610   -7.7370  134.3670 N.am  161  ALA161     -0.1977
     98  CA        74.2660   -7.5360  135.7300 C.3   161  ALA161      0.1597
     99  C         75.7530   -7.1620  135.6870 C.2   161  ALA161      0.2287
    100  O         76.4800   -7.6730  134.8320 O.2   161  ALA161     -0.2864
    101  CB        74.0620   -8.7560  136.5480 C.3   161  ALA161      0.0319
    102  N         67.9300   -2.3160  140.5560 N.3   207  LEU207     -0.1245
    103  CA        68.0520   -3.6730  141.0150 C.3   207  LEU207      0.1561
    104  C         69.3860   -3.8950  141.7780 C.2   207  LEU207      0.2260
    105  O         70.1040   -4.8520  141.5320 O.2   207  LEU207     -0.2867
    106  CB        67.9150   -4.5880  139.8070 C.3   207  LEU207      0.0270
    107  CG        67.6420   -6.0730  140.0930 C.3   207  LEU207      0.0019
    108  CD1       66.3100   -6.3510  140.8230 C.3   207  LEU207      0.0001
    109  CD2       67.7030   -6.8470  138.7860 C.3   207  LEU207      0.0001
@<TRIPOS>BOND
     1    86    84   am
     2    84    85    2
     3    84    83    1
     4    83    80    1
     5    10    11    1
     6     3     4    2
     7     3     2    1
     8     6     7    1
     9     6     5    1
    10    11    12    1
    11     8     7    2
    12    82    81    2
    13    35    34    1
    14    35    36    1
    15     7     9   am
    16    93    95   ar
    17    93    92   ar
    18    80    81    1
    19    80    79    1
    20    95    96   ar
    21     1     2    1
    22     2     5    1
    23    81    87   am
    24    91    92    1
    25    91    88    1
    26    92    94   ar
    27    37    36    2
    28    36    38   am
    29    96    94   ar
    30    74    73    2
    31    79    73   am
    32    71    72    1
    33    12    13    2
    34    73    72    1
    35    87    88    1
    36    88    89    1
    37    38    39    1
    38    72    75    1
    39    39    40    1
    40    18    19    1
    41    18    15    1
    42    89    90    2
    43    89    97   am
    44    14    15    1
    45    75    76    1
    46    15    16    1
    47    97    98    1
    48    78    76    1
    49    40    41    2
    50    40    42   am
    51    76    77    1
    52   100    99    2
    53    42    43    1
    54    16    20   am
    55    16    17    2
    56    99    98    1
    57    98   101    1
    58    26    28   ar
    59    26    25   ar
    60    20    21    1
    61    68    69    2
    62    68    67    1
    63    28    29   ar
    64    67    70    1
    65    67    66    1
    66    43    44    1
    67    25    24    1
    68    25    27   ar
    69    57    56    1
    70    29    31   ar
    71    29    27   ar
    72    21    24    1
    73    21    22    1
    74    45    44    2
    75    31    33   ar
    76    44    46   am
    77    27    30   ar
    78    56    54   ar
    79    56    55   ar
    80    22    23    2
    81    54    52   ar
    82    55    53   ar
    83   109   107    1
    84    46    47    1
    85    33    32   ar
    86    52    51   ar
    87    30    32   ar
    88    53    51   ar
    89   106   107    1
    90   106   103    1
    91    64    65    1
    92    64    63    1
    93    51    50    1
    94   107   108    1
    95    47    50    1
    96    47    48    1
    97   102   103    1
    98   103   104    1
    99    48    58   am
   100    48    49    2
   101    63    62    1
   102    58    59    1
   103   105   104    2
   104    62    59    1
   105    59    60    1
   106    60    61    2
