@<TRIPOS>MOLECULE
tmp/1ykcB00.pdb
 223 218 0 0 0
SMALL
GASTEIGER

@<TRIPOS>ATOM
      1  N         14.8810   59.4680   32.7750 N.3     6  TYR6       -0.1227
      2  CA        14.7320   60.8930   32.5070 C.3     6  TYR6        0.1736
      3  C         14.7350   61.1340   31.0020 C.2     6  TYR6        0.2595
      4  O         14.8770   60.2060   30.2090 O.2     6  TYR6       -0.2718
      5  CB        15.8700   61.6970   33.1560 C.3     6  TYR6        0.0548
      6  CG        15.6240   63.1960   33.2000 C.ar    6  TYR6       -0.0200
      7  CD1       14.5730   63.7370   33.9520 C.ar    6  TYR6       -0.0009
      8  CD2       16.4530   64.0720   32.5070 C.ar    6  TYR6       -0.0009
      9  CE1       14.3550   65.1160   34.0140 C.ar    6  TYR6        0.0417
     10  CE2       16.2430   65.4540   32.5610 C.ar    6  TYR6        0.0417
     11  CZ        15.1960   65.9680   33.3040 C.ar    6  TYR6        0.1957
     12  OH        14.9830   67.3330   33.3620 O.3     6  TYR6       -0.2866
     13  N         14.5300   62.3880   30.6220 N.am    7  TRP7       -0.1976
     14  CA        14.5590   62.7890   29.2270 C.3     7  TRP7        0.1640
     15  C         16.0130   62.6950   28.7410 C.2     7  TRP7        0.2290
     16  O         16.9330   62.6720   29.5530 O.2     7  TRP7       -0.2864
     17  CB        14.0600   64.2320   29.1120 C.3     7  TRP7        0.0576
     18  CG        12.5860   64.4070   29.4170 C.ar    7  TRP7        0.0006
     19  CD1       12.0260   65.1240   30.4530 C.ar    7  TRP7        0.0946
     20  CD2       11.4870   63.8820   28.6560 C.ar    7  TRP7        0.0152
     21  NE1       10.6470   65.0710   30.3770 N.ar    7  TRP7       -0.2442
     22  CE2       10.2900   64.3190   29.2850 C.ar    7  TRP7        0.0810
     23  CE3       11.3900   63.0840   27.5020 C.ar    7  TRP7        0.0012
     24  CZ2        9.0230   63.9890   28.7940 C.ar    7  TRP7        0.0191
     25  CZ3       10.1270   62.7580   27.0190 C.ar    7  TRP7        0.0001
     26  CH2        8.9620   63.2090   27.6670 C.ar    7  TRP7        0.0015
     27  N         17.9100   64.6180   28.0270 N.3     9  ILE9       -0.1245
     28  CA        18.2900   65.9920   28.3100 C.3     9  ILE9        0.1561
     29  C         19.1830   66.0770   29.5660 C.2     9  ILE9        0.2260
     30  O         19.2870   65.1220   30.3330 O.2     9  ILE9       -0.2867
     31  CB        16.9600   66.7550   28.4820 C.3     9  ILE9        0.0252
     32  CG1       16.6340   67.5590   27.2290 C.3     9  ILE9        0.0019
     33  CG2       16.8600   67.5250   29.7740 C.3     9  ILE9        0.0019
     34  CD1       15.9800   66.7460   26.1190 C.3     9  ILE9        0.0001
     35  N         19.0070   68.8130   31.9680 N.3    11  GLY11      -0.1210
     36  CA        17.9960   69.1680   32.9540 C.3    11  GLY11       0.1956
     37  C         18.2590   68.9180   34.4370 C.2    11  GLY11       0.2611
     38  O         19.2310   69.4390   35.0070 O.2    11  GLY11      -0.2717
     39  N         17.3610   68.1530   35.0680 N.am   12  LEU12      -0.1979
     40  CA        17.4350   67.8220   36.4990 C.3    12  LEU12       0.1596
     41  C         18.3190   66.6130   36.8170 C.2    12  LEU12       0.2287
     42  O         18.7140   66.4060   37.9770 O.2    12  LEU12      -0.2864
     43  CB        16.0320   67.5400   37.0530 C.3    12  LEU12       0.0297
     44  CG        14.9390   68.6030   36.9970 C.3    12  LEU12       0.0022
     45  CD1       13.5740   67.9510   37.2190 C.3    12  LEU12       0.0001
     46  CD2       15.2140   69.7060   38.0040 C.3    12  LEU12       0.0001
     47  N          5.1230   63.0450   23.9670 N.3    42  ARG42      -0.1245
     48  CA         5.7360   62.4940   25.1630 C.3    42  ARG42       0.1563
     49  C          5.2490   61.0770   25.4610 C.2    42  ARG42       0.2260
     50  O          5.4820   60.5530   26.5520 O.2    42  ARG42      -0.2867
     51  CB         5.4440   63.4220   26.3350 C.3    42  ARG42       0.0307
     52  CG         6.0900   64.7870   26.1700 C.3    42  ARG42       0.0489
     53  CD         5.3420   65.8680   26.9130 C.3    42  ARG42       0.2205
     54  NE         4.7970   65.3550   28.1560 N.pl3  42  ARG42      -0.0865
     55  CZ         5.3050   65.5670   29.3660 C.cat  42  ARG42       0.5346
     56  NH1        4.6990   65.0190   30.4130 N.pl3  42  ARG42       0.1354
     57  NH2        6.3780   66.3400   29.5430 N.pl3  42  ARG42       0.1354
     58  N          7.0720   58.3710   27.3240 N.3    45  TRP45      -0.1241
     59  CA         6.9990   58.5010   28.7720 C.3    45  TRP45       0.1605
     60  C          5.6000   58.1600   29.2910 C.2    45  TRP45       0.2264
     61  O          5.4400   57.3700   30.2240 O.2    45  TRP45      -0.2867
     62  CB         7.3780   59.9400   29.1710 C.3    45  TRP45       0.0550
     63  CG         7.0500   60.3450   30.5970 C.ar   45  TRP45       0.0003
     64  CD1        6.5260   61.5390   31.0010 C.ar   45  TRP45       0.0946
     65  CD2        7.2550   59.5750   31.7960 C.ar   45  TRP45       0.0152
     66  NE1        6.3940   61.5670   32.3590 N.ar   45  TRP45      -0.2442
     67  CE2        6.8310   60.3780   32.8790 C.ar   45  TRP45       0.0810
     68  CE3        7.7530   58.2900   32.0570 C.ar   45  TRP45       0.0012
     69  CZ2        6.8900   59.9370   34.2130 C.ar   45  TRP45       0.0191
     70  CZ3        7.8150   57.8500   33.3830 C.ar   45  TRP45       0.0001
     71  CH2        7.3820   58.6770   34.4430 C.ar   45  TRP45       0.0015
     72  N          4.3610   55.7170   32.3690 N.3    49  LYS49      -0.1245
     73  CA         4.4170   56.6020   33.5280 C.3    49  LYS49       0.1561
     74  C          3.7770   55.9780   34.7650 C.2    49  LYS49       0.2260
     75  O          4.2930   56.0880   35.8910 O.2    49  LYS49      -0.2867
     76  CB         3.6960   57.9070   33.1920 C.3    49  LYS49       0.0271
     77  CG         3.5310   58.8740   34.3470 C.3    49  LYS49       0.0035
     78  CD         3.1880   60.2650   33.8230 C.3    49  LYS49       0.0206
     79  CE         2.9580   61.2370   34.9600 C.3    49  LYS49       0.1093
     80  NZ         2.4590   62.5480   34.4800 N.3    49  LYS49      -0.1314
     81  N          4.4350   59.3550   40.0650 N.3    57  PRO57      -0.2102
     82  CA         5.0290   59.2920   38.7260 C.3    57  PRO57       0.1504
     83  C          5.6040   60.6240   38.2700 C.2    57  PRO57       0.2576
     84  O          4.8910   61.6350   38.2110 O.2    57  PRO57      -0.2718
     85  CB         3.8640   58.8170   37.8780 C.3    57  PRO57       0.0282
     86  CG         3.2660   57.7720   38.7830 C.3    57  PRO57       0.0208
     87  CD         3.2280   58.5020   40.1290 C.3    57  PRO57       0.0893
     88  N          6.8960   60.6160   37.9450 N.am   58  ASN58      -0.1961
     89  CA         7.5880   61.8390   37.5530 C.3    58  ASN58       0.1819
     90  C          8.9790   61.5650   36.9670 C.2    58  ASN58       0.2621
     91  O          9.4990   60.4480   37.0390 O.2    58  ASN58      -0.2715
     92  CB         7.7520   62.7270   38.7960 C.3    58  ASN58       0.1195
     93  CG         7.7630   64.1990   38.4710 C.2    58  ASN58       0.2630
     94  OD1        7.8780   64.5980   37.3180 O.2    58  ASN58      -0.2716
     95  ND2        7.6100   65.0180   39.4890 N.am   58  ASN58      -0.0877
     96  N          9.5720   62.6020   36.3830 N.am   59  LEU59      -0.1964
     97  CA        10.9040   62.5100   35.8070 C.3    59  LEU59       0.1713
     98  C         11.7580   63.6130   36.4230 C.2    59  LEU59       0.2458
     99  O         11.3640   64.7680   36.4220 O.2    59  LEU59      -0.2730
    100  CB        10.8490   62.6960   34.2830 C.3    59  LEU59       0.0310
    101  CG        10.2850   61.5430   33.4510 C.3    59  LEU59       0.0022
    102  CD1       10.3100   61.9070   31.9740 C.3    59  LEU59       0.0001
    103  CD2       11.0950   60.2860   33.6830 C.3    59  LEU59       0.0001
    104  N         12.9590   63.2770   36.9190 N.am   60  PRO60      -0.2727
    105  CA        13.5870   61.9570   36.9130 C.3    60  PRO60       0.1402
    106  C         13.0790   61.0070   37.9910 C.2    60  PRO60       0.2269
    107  O         12.4350   61.4190   38.9590 O.2    60  PRO60      -0.2865
    108  CB        15.0450   62.2940   37.1590 C.3    60  PRO60       0.0296
    109  CG        14.9530   63.4100   38.1170 C.3    60  PRO60       0.0237
    110  CD        13.8680   64.2730   37.5150 C.3    60  PRO60       0.0939
    111  N         11.4440   62.9200   42.3450 N.3    71  GLN71      -0.1231
    112  CA        11.8990   64.2060   42.8660 C.3    71  GLN71       0.1698
    113  C         13.4190   64.1560   42.8800 C.2    71  GLN71       0.2593
    114  O         14.0240   63.3420   43.5900 O.2    71  GLN71      -0.2718
    115  CB        11.3230   64.5160   44.2650 C.3    71  GLN71       0.0381
    116  CG         9.8240   64.8510   44.2650 C.3    71  GLN71       0.0905
    117  CD         9.5030   66.1320   43.5130 C.2    71  GLN71       0.2608
    118  OE1       10.2820   67.0740   43.5220 O.2    71  GLN71      -0.2717
    119  NE2        8.3380   66.1850   42.8910 N.am   71  GLN71      -0.0878
    120  N         14.0200   64.9710   42.0160 N.am   72  SER72      -0.1938
    121  CA        15.4670   65.0160   41.8750 C.3    72  SER72       0.2055
    122  C         16.2120   65.1470   43.2050 C.2    72  SER72       0.2643
    123  O         17.1710   64.3970   43.4580 O.2    72  SER72      -0.2714
    124  CB        15.8870   66.0990   40.8510 C.3    72  SER72       0.2130
    125  OG        15.3720   67.3900   41.1410 O.3    72  SER72      -0.2179
    126  N         15.7430   66.0510   44.0680 N.am   73  ASN73      -0.1971
    127  CA        16.3710   66.2520   45.3700 C.3    73  ASN73       0.1688
    128  C         16.3550   64.9870   46.2140 C.2    73  ASN73       0.2292
    129  O         17.3410   64.6780   46.8950 O.2    73  ASN73      -0.2864
    130  CB        15.7170   67.4010   46.1420 C.3    73  ASN73       0.1181
    131  CG        16.1650   68.7730   45.6570 C.2    73  ASN73       0.2629
    132  OD1       17.2210   68.9180   45.0470 O.2    73  ASN73      -0.2716
    133  ND2       15.3750   69.7970   45.9630 N.am   73  ASN73      -0.0877
    134  N         17.8000   75.4220   43.7930 N.3   104  MET104     -0.1245
    135  CA        16.6030   75.0220   43.0510 C.3   104  MET104      0.1570
    136  C         15.8770   76.2870   42.5840 C.2   104  MET104      0.2261
    137  O         15.3830   76.3610   41.4520 O.2   104  MET104     -0.2867
    138  CB        15.6860   74.1560   43.9300 C.3   104  MET104      0.0387
    139  CG        14.4150   73.6280   43.2360 C.3   104  MET104      0.0595
    140  SD        14.6540   72.7650   41.6440 S.3   104  MET104     -0.1393
    141  CE        14.9700   71.0910   42.1770 C.3   104  MET104      0.0692
    142  N         17.8100   77.6920   39.7840 N.3   107  ARG107     -0.1231
    143  CA        17.6650   76.8070   38.6410 C.3   107  ARG107      0.1694
    144  C         16.3640   77.1060   37.9060 C.2   107  ARG107      0.2591
    145  O         16.3350   77.1570   36.6780 O.2   107  ARG107     -0.2718
    146  CB        17.6520   75.3540   39.0950 C.3   107  ARG107      0.0321
    147  CG        17.4150   74.3670   37.9580 C.3   107  ARG107      0.0489
    148  CD        17.0150   72.9820   38.4790 C.3   107  ARG107      0.2205
    149  NE        18.0850   72.3260   39.2270 N.pl3 107  ARG107     -0.0865
    150  CZ        19.0820   71.6340   38.6740 C.cat 107  ARG107      0.5346
    151  NH1       19.1570   71.4870   37.3600 N.pl3 107  ARG107      0.1354
    152  NH2       20.0400   71.1350   39.4380 N.pl3 107  ARG107      0.1354
    153  N         15.2800   77.2390   38.6630 N.am  108  MET108     -0.1979
    154  CA        13.9710   77.5190   38.0910 C.3   108  MET108      0.1605
    155  C         13.8840   78.8930   37.4580 C.2   108  MET108      0.2287
    156  O         13.1780   79.0550   36.4790 O.2   108  MET108     -0.2864
    157  CB        12.8800   77.3390   39.1440 C.3   108  MET108      0.0413
    158  CG        12.7230   75.9000   39.6270 C.3   108  MET108      0.0598
    159  SD        11.4000   75.7040   40.8800 S.3   108  MET108     -0.1393
    160  CE        10.0710   75.0430   39.8540 C.3   108  MET108      0.0692
    161  N         15.2690   78.4720   34.0500 N.3   111  ALA111     -0.1231
    162  CA        14.3400   77.6690   33.2630 C.3   111  ALA111      0.1694
    163  C         13.1210   78.5000   32.8450 C.2   111  ALA111      0.2591
    164  O         12.7090   78.4530   31.6770 O.2   111  ALA111     -0.2718
    165  CB        13.9060   76.4520   34.0460 C.3   111  ALA111      0.0304
    166  N         12.5490   79.2520   33.7880 N.am  112  LYS112     -0.1980
    167  CA        11.3860   80.1030   33.5030 C.3   112  LYS112      0.1596
    168  C         11.7160   81.0270   32.3320 C.2   112  LYS112      0.2287
    169  O         10.9330   81.1560   31.3930 O.2   112  LYS112     -0.2864
    170  CB        10.9850   80.9440   34.7290 C.3   112  LYS112      0.0298
    171  CG         9.6980   81.7670   34.5240 C.3   112  LYS112      0.0038
    172  CD         9.2850   82.5520   35.7620 C.3   112  LYS112      0.0206
    173  CE        10.2680   83.6830   36.0660 C.3   112  LYS112      0.1093
    174  NZ        10.5320   83.8970   37.5220 N.3   112  LYS112     -0.1314
    175  N         12.1960   79.1340   28.7260 N.3   115  TYR115     -0.1227
    176  CA        11.0470   78.4960   28.0930 C.3   115  TYR115      0.1736
    177  C         10.0100   79.5110   27.6480 C.2   115  TYR115      0.2595
    178  O          9.1200   79.1910   26.8620 O.2   115  TYR115     -0.2718
    179  CB        10.3900   77.5190   29.0530 C.3   115  TYR115      0.0548
    180  CG        11.0410   76.1270   29.1260 C.ar  115  TYR115     -0.0200
    181  CD1       11.9900   75.8370   30.1020 C.ar  115  TYR115     -0.0009
    182  CD2       10.6920   75.1270   28.2240 C.ar  115  TYR115     -0.0009
    183  CE1       12.5630   74.5710   30.1850 C.ar  115  TYR115      0.0417
    184  CE2       11.2520   73.8710   28.2980 C.ar  115  TYR115      0.0417
    185  CZ        12.1870   73.5890   29.2700 C.ar  115  TYR115      0.1957
    186  OH        12.7370   72.3340   29.3390 O.3   115  TYR115     -0.2866
    187  N         10.1060   80.7200   28.1900 N.am  116  ASP116     -0.1974
    188  CA         9.1860   81.8030   27.8780 C.3   116  ASP116      0.1709
    189  C          9.4040   82.3150   26.4500 C.2   116  ASP116      0.2293
    190  O         10.5210   82.6820   26.0780 O.2   116  ASP116     -0.2864
    191  CB         9.4050   82.9390   28.8820 C.3   116  ASP116      0.1436
    192  CG         8.2820   83.9550   28.8780 C.2   116  ASP116      0.3671
    193  OD1        7.8490   84.3460   29.9800 O.co2 116  ASP116     -0.2456
    194  OD2        7.8340   84.3730   27.7890 O.co2 116  ASP116     -0.2456
    195  N         25.7220   75.8780   34.1270 N.3   165  ARG165     -0.1245
    196  CA        24.7880   76.1810   33.0380 C.3   165  ARG165      0.1563
    197  C         24.6460   77.6970   32.8750 C.2   165  ARG165      0.2260
    198  O         24.3100   78.1960   31.7890 O.2   165  ARG165     -0.2867
    199  CB        23.4170   75.5360   33.2740 C.3   165  ARG165      0.0307
    200  CG        22.7130   75.9440   34.5640 C.3   165  ARG165      0.0489
    201  CD        21.3150   75.3200   34.6510 C.3   165  ARG165      0.2205
    202  NE        21.3930   73.8610   34.5860 N.pl3 165  ARG165     -0.0865
    203  CZ        20.3830   73.0490   34.2780 C.cat 165  ARG165      0.5346
    204  NH1       19.1830   73.5450   33.9980 N.pl3 165  ARG165      0.1354
    205  NH2       20.5840   71.7320   34.2320 N.pl3 165  ARG165      0.1354
    206  N         17.9200   72.0070   28.1830 N.3   208  PHE208     -0.1227
    207  CA        16.4860   71.8630   28.3800 C.3   208  PHE208      0.1736
    208  C         15.8290   70.9610   27.3350 C.2   208  PHE208      0.2596
    209  O         16.5280   70.3040   26.5560 O.2   208  PHE208     -0.2718
    210  CB        15.8530   73.2580   28.3770 C.3   208  PHE208      0.0547
    211  CG        16.3660   74.1690   29.4770 C.ar  208  PHE208     -0.0202
    212  CD1       16.1860   73.8320   30.8260 C.ar  208  PHE208     -0.0042
    213  CD2       17.0100   75.3620   29.1690 C.ar  208  PHE208     -0.0042
    214  CE1       16.6360   74.6680   31.8520 C.ar  208  PHE208     -0.0003
    215  CE2       17.4640   76.2050   30.1820 C.ar  208  PHE208     -0.0003
    216  CZ        17.2730   75.8540   31.5340 C.ar  208  PHE208     -0.0000
    217  N         14.4960   70.8770   27.3530 N.am  209  THR209     -0.1953
    218  CA        13.7740   70.0450   26.3770 C.3   209  THR209      0.1897
    219  C         13.5860   70.8260   25.0890 C.2   209  THR209      0.2313
    220  O         13.9360   72.0110   25.0180 O.2   209  THR209     -0.2863
    221  CB        12.3680   69.5890   26.8650 C.3   209  THR209      0.1794
    222  OG1       11.4640   70.6980   26.8640 O.3   209  THR209     -0.2208
    223  CG2       12.4360   68.9920   28.2650 C.3   209  THR209      0.0378
@<TRIPOS>BOND
     1    47    48    1
     2   220   219    2
     3   219   218    1
     4    48    49    1
     5    48    51    1
     6    49    50    2
     7   190   189    2
     8    34    32    1
     9    52    51    1
    10    52    53    1
    11   218   221    1
    12   218   217    1
    13   189   188    1
    14   209   208    2
    15   178   177    2
    16   222   221    1
    17   221   223    1
    18    53    54    1
    19    25    23   ar
    20    25    26   ar
    21    32    31    1
    22    58    59    1
    23   208   217   am
    24   208   207    1
    25    23    20   ar
    26   177   176    1
    27   177   187   am
    28    26    24   ar
    29   194   192   ar
    30   188   187    1
    31   188   191    1
    32    27    28    1
    33   176   175    1
    34   176   179    1
    35    54    55    2
    36   206   207    1
    37   182   184   ar
    38   182   180   ar
    39   184   185   ar
    40    28    31    1
    41    28    29    1
    42   210   207    1
    43   210   211    1
    44    31    33    1
    45    20    22   ar
    46    20    18   ar
    47    15    14    1
    48    15    16    2
    49    59    62    1
    50    59    60    1
    51    24    22   ar
    52   192   191    1
    53   192   193   ar
    54   179   180    1
    55    17    14    1
    56    17    18    1
    57   180   181   ar
    58   213   211   ar
    59   213   215   ar
    60    62    63    1
    61    14    13    1
    62   185   186    1
    63   185   183   ar
    64    22    21   ar
    65    60    61    2
    66    55    57    1
    67    55    56    1
    68    18    19   ar
    69   211   212   ar
    70    29    30    2
    71   181   183   ar
    72   215   216   ar
    73     4     3    2
    74    21    19   ar
    75    63    64   ar
    76    63    65   ar
    77    13     3   am
    78   212   214   ar
    79    64    66   ar
    80     3     2    1
    81   169   168    2
    82   216   214   ar
    83   164   163    2
    84   198   197    2
    85    65    68   ar
    86    65    67   ar
    87    35    36    1
    88   102   101    1
    89    68    70   ar
    90   168   167    1
    91    66    67   ar
    92    72    73    1
    93     2     1    1
    94     2     5    1
    95     8    10   ar
    96     8     6   ar
    97    10    11   ar
    98   163   162    1
    99   163   166   am
   100   197   196    1
   101    67    69   ar
   102    36    37    1
   103   196   199    1
   104   196   195    1
   105     5     6    1
   106    76    73    1
   107    76    77    1
   108     6     7   ar
   109   162   165    1
   110   162   161    1
   111   199   200    1
   112    11    12    1
   113    11     9   ar
   114    70    71   ar
   115   101   103    1
   116   101   100    1
   117   167   166    1
   118   167   170    1
   119    73    74    1
   120    78    77    1
   121    78    79    1
   122     7     9   ar
   123   204   203    1
   124    69    71   ar
   125   205   203    1
   126   203   202    2
   127   100    97    1
   128    37    38    2
   129    37    39   am
   130    80    79    1
   131   171   170    1
   132   171   172    1
   133   200   201    1
   134   202   201    1
   135    74    75    2
   136    39    40    1
   137   172   173    1
   138    97    96    1
   139    97    98    1
   140   173   174    1
   141    96    90   am
   142    99    98    2
   143    98   104   am
   144   156   155    2
   145    40    41    1
   146    40    43    1
   147   145   144    2
   148    41    42    2
   149   105   104    1
   150   105   108    1
   151   105   106    1
   152   104   110    1
   153    90    91    2
   154    90    89    1
   155    44    43    1
   156    44    45    1
   157    44    46    1
   158   108   109    1
   159    94    93    2
   160   151   150    1
   161   155   154    1
   162   110   109    1
   163    89    88    1
   164    89    92    1
   165    85    82    1
   166    85    86    1
   167   144   143    1
   168   144   153   am
   169    88    83   am
   170   147   148    1
   171   147   146    1
   172   106   107    2
   173   154   153    1
   174   154   157    1
   175    84    83    2
   176    83    82    1
   177    93    92    1
   178    93    95   am
   179   148   149    1
   180   143   146    1
   181   143   142    1
   182   150   149    2
   183   150   152    1
   184    82    81    1
   185    86    87    1
   186   157   158    1
   187   158   159    1
   188   160   159    1
   189    81    87    1
   190   124   125    1
   191   124   121    1
   192   137   136    2
   193   140   141    1
   194   140   139    1
   195   121   120    1
   196   121   122    1
   197   120   113   am
   198   111   112    1
   199   136   135    1
   200   112   113    1
   201   112   115    1
   202   113   114    2
   203   119   117   am
   204   135   134    1
   205   135   138    1
   206   122   123    2
   207   122   126   am
   208   139   138    1
   209   117   118    2
   210   117   116    1
   211   126   127    1
   212   115   116    1
   213   132   131    2
   214   127   130    1
   215   127   128    1
   216   131   133   am
   217   131   130    1
   218   128   129    2
