@<TRIPOS>MOLECULE
tmp/1ykdA01.pdb
 184 173 0 0 0
SMALL
GASTEIGER

@<TRIPOS>ATOM
      1  N        -28.5550   -9.1370   17.0100 N.3   234  ARG234     -0.1231
      2  CA       -28.3990   -8.6040   18.3610 C.3   234  ARG234      0.1694
      3  C        -26.9250   -8.3980   18.6940 C.2   234  ARG234      0.2593
      4  O        -26.0410   -8.8890   17.9980 O.2   234  ARG234     -0.2718
      5  CB       -29.0290   -9.5570   19.3870 C.3   234  ARG234      0.0321
      6  CG       -30.5440   -9.7170   19.2570 C.3   234  ARG234      0.0489
      7  CD       -31.1740  -10.5410   20.3700 C.3   234  ARG234      0.2205
      8  NE       -32.6250  -10.6520   20.2260 N.pl3 234  ARG234     -0.0865
      9  CZ       -33.4280  -11.2780   21.0920 C.cat 234  ARG234      0.5346
     10  NH1      -32.9420  -11.8390   22.1840 N.pl3 234  ARG234      0.1354
     11  NH2      -34.7330  -11.3380   20.8650 N.pl3 234  ARG234      0.1354
     12  N        -26.6730   -7.6500   19.7580 N.am  235  SER235     -0.1938
     13  CA       -25.3220   -7.4630   20.2860 C.3   235  SER235      0.2055
     14  C        -25.3950   -7.2770   21.7920 C.2   235  SER235      0.2643
     15  O        -26.4360   -6.9120   22.3440 O.2   235  SER235     -0.2714
     16  CB       -24.6270   -6.2720   19.6310 C.3   235  SER235      0.2130
     17  OG       -25.2960   -5.0620   19.9380 O.3   235  SER235     -0.2179
     18  N        -24.2700   -7.5330   22.4470 N.am  236  THR236     -0.1950
     19  CA       -24.2240   -7.6730   23.8840 C.3   236  THR236      0.1897
     20  C        -22.8590   -7.2670   24.3960 C.2   236  THR236      0.2313
     21  O        -21.8520   -7.5600   23.7690 O.2   236  THR236     -0.2863
     22  CB       -24.4970   -9.1480   24.2560 C.3   236  THR236      0.1794
     23  OG1      -25.7160   -9.5850   23.6350 O.3   236  THR236     -0.2208
     24  CG2      -24.7520   -9.3070   25.7500 C.3   236  THR236      0.0378
     25  N        -20.8430   -7.9770   27.8400 N.3   238  TRP238     -0.1241
     26  CA       -20.7310   -8.6730   29.1090 C.3   238  TRP238      0.1605
     27  C        -19.6900   -7.9720   29.9590 C.2   238  TRP238      0.2264
     28  O        -18.6150   -7.6500   29.4680 O.2   238  TRP238     -0.2867
     29  CB       -20.2790  -10.1130   28.8790 C.3   238  TRP238      0.0550
     30  CG       -21.2510  -10.9390   28.1140 C.ar  238  TRP238      0.0003
     31  CD1      -21.3760  -11.0110   26.7600 C.ar  238  TRP238      0.0946
     32  CD2      -22.2330  -11.8310   28.6550 C.ar  238  TRP238      0.0152
     33  NE1      -22.3770  -11.8890   26.4250 N.ar  238  TRP238     -0.2442
     34  CE2      -22.9220  -12.4050   27.5700 C.ar  238  TRP238      0.0810
     35  CE3      -22.6100  -12.1940   29.9530 C.ar  238  TRP238      0.0012
     36  CZ2      -23.9680  -13.3240   27.7410 C.ar  238  TRP238      0.0191
     37  CZ3      -23.6360  -13.1030   30.1220 C.ar  238  TRP238      0.0001
     38  CH2      -24.3010  -13.6630   29.0200 C.ar  238  TRP238      0.0015
     39  N        -29.8870   -8.1250   28.6160 N.3   251  ILE251     -0.1231
     40  CA       -30.3800   -8.1630   27.2370 C.3   251  ILE251      0.1692
     41  C        -31.7730   -7.5530   27.1300 C.2   251  ILE251      0.2592
     42  O        -32.5130   -7.4690   28.1150 O.2   251  ILE251     -0.2718
     43  CB       -30.3730   -9.6110   26.6500 C.3   251  ILE251      0.0266
     44  CG1      -31.3540  -10.5340   27.3870 C.3   251  ILE251      0.0019
     45  CG2      -28.9620  -10.1940   26.6680 C.3   251  ILE251      0.0020
     46  CD1      -31.7900  -11.7300   26.5690 C.3   251  ILE251      0.0001
     47  N        -32.1110   -7.1240   25.9200 N.am  252  THR252     -0.1953
     48  CA       -33.4460   -6.6290   25.6110 C.3   252  THR252      0.1897
     49  C        -34.0310   -7.4800   24.4750 C.2   252  THR252      0.2313
     50  O        -33.3630   -7.7260   23.4660 O.2   252  THR252     -0.2863
     51  CB       -33.4060   -5.1100   25.2740 C.3   252  THR252      0.1794
     52  OG1      -34.7010   -4.6670   24.8520 O.3   252  THR252     -0.2208
     53  CG2      -32.4910   -4.7940   24.0820 C.3   252  THR252      0.0378
     54  N        -28.5470  -11.8880   32.3350 N.3   261  LEU261     -0.1245
     55  CA       -27.8650  -13.1640   32.1240 C.3   261  LEU261      0.1561
     56  C        -26.5720  -13.1950   32.9350 C.2   261  LEU261      0.2260
     57  O        -25.9190  -12.1660   33.1030 O.2   261  LEU261     -0.2867
     58  CB       -27.5440  -13.3720   30.6430 C.3   261  LEU261      0.0270
     59  CG       -28.7150  -13.4110   29.6520 C.3   261  LEU261      0.0019
     60  CD1      -28.2000  -13.4700   28.2200 C.3   261  LEU261      0.0001
     61  CD2      -29.6430  -14.5850   29.9240 C.3   261  LEU261      0.0001
     62  N        -23.0710  -15.9040   33.5060 N.3   263  VAL263     -0.1245
     63  CA       -22.3300  -17.1150   33.1660 C.3   263  VAL263      0.1561
     64  C        -20.9820  -17.1560   33.9040 C.2   263  VAL263      0.2260
     65  O        -20.2910  -16.1450   34.0090 O.2   263  VAL263     -0.2867
     66  CB       -22.1090  -17.2520   31.6290 C.3   263  VAL263      0.0252
     67  CG1      -23.4200  -17.0480   30.8660 C.3   263  VAL263      0.0019
     68  CG2      -21.0680  -16.2790   31.1250 C.3   263  VAL263      0.0019
     69  N        -17.2010  -20.8800   31.0470 N.3   267  LYS267     -0.1231
     70  CA       -18.3640  -21.5580   30.4490 C.3   267  LYS267      0.1693
     71  C        -19.0020  -20.7480   29.3220 C.2   267  LYS267      0.2593
     72  O        -19.2340  -19.5460   29.4560 O.2   267  LYS267     -0.2718
     73  CB       -19.4260  -21.8780   31.5090 C.3   267  LYS267      0.0285
     74  CG       -19.2150  -23.2180   32.2330 C.3   267  LYS267      0.0035
     75  CD       -19.3190  -24.4100   31.2800 C.3   267  LYS267      0.0206
     76  CE       -19.3960  -25.7380   32.0180 C.3   267  LYS267      0.1093
     77  NZ       -19.2800  -26.8820   31.0720 N.3   267  LYS267     -0.1314
     78  N        -19.3030  -21.4260   28.2180 N.am  268  GLY268     -0.1942
     79  CA       -19.8700  -20.7860   27.0470 C.3   268  GLY268      0.2014
     80  C        -18.8030  -20.0090   26.3010 C.2   268  GLY268      0.2639
     81  O        -17.6760  -19.8760   26.7690 O.2   268  GLY268     -0.2714
     82  N        -19.1630  -19.4860   25.1390 N.am  269  PHE269     -0.1959
     83  CA       -18.2110  -18.7780   24.2940 C.3   269  PHE269      0.1771
     84  C        -17.7680  -17.4740   24.9340 C.2   269  PHE269      0.2619
     85  O        -16.6050  -17.1010   24.8350 O.2   269  PHE269     -0.2715
     86  CB       -18.8100  -18.5550   22.9110 C.3   269  PHE269      0.0574
     87  CG       -19.0940  -19.8340   22.1790 C.ar  269  PHE269     -0.0200
     88  CD1      -18.0570  -20.5770   21.6380 C.ar  269  PHE269     -0.0042
     89  CD2      -20.3910  -20.3110   22.0500 C.ar  269  PHE269     -0.0042
     90  CE1      -18.3070  -21.7650   20.9720 C.ar  269  PHE269     -0.0003
     91  CE2      -20.6400  -21.5000   21.3760 C.ar  269  PHE269     -0.0003
     92  CZ       -19.5940  -22.2250   20.8420 C.ar  269  PHE269     -0.0000
     93  N        -18.6830  -16.7960   25.6200 N.am  270  ALA270     -0.1977
     94  CA       -18.3330  -15.5590   26.3130 C.3   270  ALA270      0.1597
     95  C        -17.3880  -15.8460   27.4630 C.2   270  ALA270      0.2287
     96  O        -16.4270  -15.1060   27.6760 O.2   270  ALA270     -0.2864
     97  CB       -19.5620  -14.8680   26.8050 C.3   270  ALA270      0.0319
     98  N        -18.6500  -26.6360   21.9800 N.3   291  ASP291     -0.1239
     99  CA       -18.7820  -25.7810   23.1710 C.3   291  ASP291      0.1674
    100  C        -20.1250  -25.0470   23.2650 C.2   291  ASP291      0.2266
    101  O        -20.2600  -24.0800   24.0230 O.2   291  ASP291     -0.2867
    102  CB       -17.6430  -24.7620   23.1840 C.3   291  ASP291      0.1410
    103  CG       -16.2920  -25.4140   23.4040 C.2   291  ASP291      0.3668
    104  OD1      -16.2240  -26.3290   24.2510 O.co2 291  ASP291     -0.2456
    105  OD2      -15.2650  -25.0890   22.7780 O.co2 291  ASP291     -0.2456
    106  N        -23.9930  -24.2410   26.5220 N.3   294  THR294     -0.1203
    107  CA       -24.4780  -23.0770   27.2730 C.3   294  THR294      0.1994
    108  C        -25.4790  -22.2540   26.4540 C.2   294  THR294      0.2617
    109  O        -26.5380  -21.8700   26.9560 O.2   294  THR294     -0.2717
    110  CB       -23.2840  -22.2010   27.6940 C.3   294  THR294      0.1784
    111  OG1      -22.4410  -22.9390   28.5880 O.3   294  THR294     -0.2211
    112  CG2      -23.7300  -20.9730   28.5030 C.3   294  THR294      0.0376
    113  N        -25.1350  -21.9970   25.1940 N.am  295  ALA295     -0.1979
    114  CA       -26.0150  -21.2850   24.2780 C.3   295  ALA295      0.1597
    115  C        -27.3550  -22.0020   24.1460 C.2   295  ALA295      0.2287
    116  O        -28.3970  -21.3600   24.1290 O.2   295  ALA295     -0.2864
    117  CB       -25.3610  -21.1390   22.9060 C.3   295  ALA295      0.0319
    118  N        -29.5390  -21.2690   27.3390 N.3   298  ILE298     -0.1231
    119  CA       -29.9630  -19.8700   27.3890 C.3   298  ILE298      0.1692
    120  C        -30.9800  -19.5400   26.2760 C.2   298  ILE298      0.2592
    121  O        -31.9490  -18.8190   26.5100 O.2   298  ILE298     -0.2718
    122  CB       -28.7160  -18.9330   27.3490 C.3   298  ILE298      0.0266
    123  CG1      -27.9820  -18.9900   28.6900 C.3   298  ILE298      0.0019
    124  CG2      -29.1000  -17.4780   27.0720 C.3   298  ILE298      0.0020
    125  CD1      -26.5320  -18.6370   28.6040 C.3   298  ILE298      0.0001
    126  N        -30.7720  -20.0900   25.0820 N.am  299  ASP299     -0.1974
    127  CA       -31.6990  -19.9090   23.9650 C.3   299  ASP299      0.1709
    128  C        -33.1060  -20.3720   24.3540 C.2   299  ASP299      0.2293
    129  O        -34.0860  -19.6560   24.1640 O.2   299  ASP299     -0.2864
    130  CB       -31.2450  -20.7300   22.7490 C.3   299  ASP299      0.1436
    131  CG       -30.1670  -20.0460   21.9250 C.2   299  ASP299      0.3671
    132  OD1      -29.8850  -18.8460   22.1270 O.co2 299  ASP299     -0.2456
    133  OD2      -29.5550  -20.6530   21.0200 O.co2 299  ASP299     -0.2456
    134  N        -34.8170  -18.0300   26.7700 N.3   302  ASN302     -0.1240
    135  CA       -35.1260  -16.6980   26.2380 C.3   302  ASN302      0.1653
    136  C        -36.0400  -16.7050   25.0180 C.2   302  ASN302      0.2266
    137  O        -36.4070  -15.6370   24.5220 O.2   302  ASN302     -0.2867
    138  CB       -33.8330  -15.9700   25.8380 C.3   302  ASN302      0.1155
    139  CG       -32.9070  -15.7260   27.0030 C.2   302  ASN302      0.2627
    140  OD1      -33.3480  -15.4940   28.1280 O.2   302  ASN302     -0.2716
    141  ND2      -31.6060  -15.7510   26.7310 N.am  302  ASN302     -0.0877
    142  N        -35.0870  -17.7170   22.0260 N.3   304  TYR304     -0.1241
    143  CA       -34.2060  -17.2470   20.9540 C.3   304  TYR304      0.1605
    144  C        -33.4180  -18.4350   20.3790 C.2   304  TYR304      0.2264
    145  O        -33.5920  -19.5670   20.8100 O.2   304  TYR304     -0.2867
    146  CB       -33.2590  -16.1610   21.4950 C.3   304  TYR304      0.0534
    147  CG       -32.5830  -15.2950   20.4370 C.ar  304  TYR304     -0.0201
    148  CD1      -33.3300  -14.5450   19.5380 C.ar  304  TYR304     -0.0009
    149  CD2      -31.1940  -15.2250   20.3470 C.ar  304  TYR304     -0.0009
    150  CE1      -32.7170  -13.7440   18.5780 C.ar  304  TYR304      0.0417
    151  CE2      -30.5740  -14.4300   19.3860 C.ar  304  TYR304      0.0417
    152  CZ       -31.3430  -13.7010   18.5020 C.ar  304  TYR304      0.1957
    153  OH       -30.7380  -12.9220   17.5460 O.3   304  TYR304     -0.2866
    154  N        -29.3580  -18.9920   18.8360 N.3   306  THR306     -0.1218
    155  CA       -28.0360  -18.5060   18.4690 C.3   306  THR306      0.1862
    156  C        -27.4430  -19.4300   17.4020 C.2   306  THR306      0.2287
    157  O        -27.2620  -20.6370   17.6290 O.2   306  THR306     -0.2866
    158  CB       -27.1230  -18.4600   19.7160 C.3   306  THR306      0.1770
    159  OG1      -27.7460  -17.6740   20.7400 O.3   306  THR306     -0.2211
    160  CG2      -25.8200  -17.7240   19.4210 C.3   306  THR306      0.0375
    161  N        -21.8040  -16.2880   15.9090 N.3   309  LEU309     -0.1245
    162  CA       -21.3380  -15.5240   17.0590 C.3   309  LEU309      0.1561
    163  C        -19.9210  -14.9930   16.8570 C.2   309  LEU309      0.2260
    164  O        -19.0250  -15.7310   16.4450 O.2   309  LEU309     -0.2867
    165  CB       -21.3840  -16.4240   18.3010 C.3   309  LEU309      0.0270
    166  CG       -21.5110  -15.8440   19.7030 C.3   309  LEU309      0.0019
    167  CD1      -22.7940  -15.0720   19.8980 C.3   309  LEU309      0.0001
    168  CD2      -21.4200  -17.0060   20.7210 C.3   309  LEU309      0.0001
    169  N        -20.2960   -9.3870   22.1680 N.3   326  GLN326     -0.1245
    170  CA       -20.7690  -10.3960   21.2340 C.3   326  GLN326      0.1566
    171  C        -21.6570   -9.7370   20.1940 C.2   326  GLN326      0.2260
    172  O        -22.5250   -8.9290   20.5450 O.2   326  GLN326     -0.2867
    173  CB       -21.5610  -11.4860   21.9590 C.3   326  GLN326      0.0367
    174  CG       -20.7430  -12.3210   22.9000 C.3   326  GLN326      0.0905
    175  CD       -21.5060  -13.5220   23.4440 C.2   326  GLN326      0.2608
    176  OE1      -22.6560  -13.3990   23.8710 O.2   326  GLN326     -0.2717
    177  NE2      -20.8660  -14.6820   23.4280 N.am  326  GLN326     -0.0878
    178  N        -24.3830  -11.2110   17.6180 N.3   328  VAL328     -0.1245
    179  CA       -25.1950  -12.4040   17.6940 C.3   328  VAL328      0.1561
    180  C        -26.0170  -12.4960   16.4180 C.2   328  VAL328      0.2260
    181  O        -26.7990  -11.6100   16.1270 O.2   328  VAL328     -0.2867
    182  CB       -26.1320  -12.3450   18.9170 C.3   328  VAL328      0.0252
    183  CG1      -26.9520  -13.6180   19.0340 C.3   328  VAL328      0.0019
    184  CG2      -25.3330  -12.0890   20.1950 C.3   328  VAL328      0.0019
@<TRIPOS>BOND
     1   161   162    1
     2   181   180    2
     3   180   179    1
     4   164   163    2
     5   163   162    1
     6     1     2    1
     7   162   165    1
     8   156   157    2
     9   156   155    1
    10   153   152    1
    11   178   179    1
    12   179   182    1
    13     4     3    2
    14   165   166    1
    15     2     3    1
    16     2     5    1
    17   155   154    1
    18   155   158    1
    19   152   150   ar
    20   152   151   ar
    21   150   148   ar
    22     3    12   am
    23   182   183    1
    24   182   184    1
    25     6     5    1
    26     6     7    1
    27   151   149   ar
    28   160   158    1
    29   148   147   ar
    30    16    17    1
    31    16    13    1
    32   166   167    1
    33   166   168    1
    34   158   159    1
    35    12    13    1
    36   171   172    2
    37   171   170    1
    38     8     7    1
    39     8     9    2
    40    13    14    1
    41   149   147   ar
    42   144   145    2
    43   144   143    1
    44   147   146    1
    45    92    90   ar
    46    92    91   ar
    47    11     9    1
    48   143   146    1
    49   143   142    1
    50    90    88   ar
    51   133   131   ar
    52     9    10    1
    53   170   173    1
    54   170   169    1
    55    91    89   ar
    56    88    87   ar
    57    14    15    2
    58    14    18   am
    59   131   132   ar
    60   131   130    1
    61   173   174    1
    62    98    99    1
    63    89    87   ar
    64    87    86    1
    65    18    19    1
    66   130   127    1
    67   105   103   ar
    68   174   175    1
    69   117   114    1
    70    86    83    1
    71    99   102    1
    72    99   100    1
    73   102   103    1
    74   100   101    2
    75   103   104   ar
    76   177   175   am
    77   175   176    2
    78    50    49    2
    79    23    22    1
    80    21    20    2
    81    19    22    1
    82    19    20    1
    83   127   128    1
    84   127   126    1
    85    53    51    1
    86   116   115    2
    87   115   114    1
    88   129   128    2
    89    22    24    1
    90   114   113    1
    91    83    84    1
    92    83    82    1
    93    49    48    1
    94   137   136    2
    95    85    84    2
    96    52    51    1
    97    84    93   am
    98   136   135    1
    99   126   120   am
   100    82    80   am
   101   113   108   am
   102    51    48    1
   103    48    47    1
   104    93    94    1
   105   138   135    1
   106   138   139    1
   107    47    41   am
   108   135   134    1
   109   120   121    2
   110   120   119    1
   111    80    81    2
   112    80    79    1
   113    94    97    1
   114    94    95    1
   115    33    31   ar
   116    33    34   ar
   117   108   109    2
   118   108   107    1
   119   106   107    1
   120    46    44    1
   121    43    45    1
   122    43    40    1
   123    43    44    1
   124   141   139   am
   125    31    30   ar
   126   139   140    2
   127    79    78    1
   128   124   122    1
   129    41    40    1
   130    41    42    2
   131    40    39    1
   132   107   110    1
   133   118   119    1
   134   122   119    1
   135   122   123    1
   136    95    96    2
   137    34    36   ar
   138    34    32   ar
   139   110   112    1
   140   110   111    1
   141    36    38   ar
   142    25    26    1
   143    30    32   ar
   144    30    29    1
   145    78    71   am
   146    60    59    1
   147   125   123    1
   148    32    35   ar
   149    29    26    1
   150    38    37   ar
   151    26    27    1
   152    71    72    2
   153    71    70    1
   154    28    27    2
   155    59    61    1
   156    59    58    1
   157    35    37   ar
   158    70    69    1
   159    70    73    1
   160    58    55    1
   161    67    66    1
   162    77    76    1
   163    68    66    1
   164    75    76    1
   165    75    74    1
   166    73    74    1
   167    66    63    1
   168    55    54    1
   169    55    56    1
   170    56    57    2
   171    63    62    1
   172    63    64    1
   173    64    65    2
