@<TRIPOS>MOLECULE
tmp/1ykdA00.pdb
 170 157 0 0 0
SMALL
GASTEIGER

@<TRIPOS>ATOM
      1  N         11.7560  -24.0210   -9.7760 N.3    46  ARG46      -0.1245
      2  CA        10.6250  -23.3840   -9.1010 C.3    46  ARG46       0.1563
      3  C         11.0830  -22.5410   -7.9150 C.2    46  ARG46       0.2260
      4  O         12.0730  -22.8530   -7.2560 O.2    46  ARG46      -0.2867
      5  CB         9.6060  -24.4370   -8.6420 C.3    46  ARG46       0.0307
      6  CG         8.8100  -25.0360   -9.7970 C.3    46  ARG46       0.0489
      7  CD         7.5700  -25.7830   -9.3860 C.3    46  ARG46       0.2205
      8  NE         6.9710  -26.4940  -10.5160 N.pl3  46  ARG46      -0.0865
      9  CZ         5.8440  -27.2020  -10.4610 C.cat  46  ARG46       0.5346
     10  NH1        5.1610  -27.2990   -9.3290 N.pl3  46  ARG46       0.1354
     11  NH2        5.3930  -27.8180  -11.5450 N.pl3  46  ARG46       0.1354
     12  N          9.4490  -20.1380   -4.5630 N.3    48  THR48      -0.1218
     13  CA         8.2800  -19.9170   -3.7240 C.3    48  THR48       0.1862
     14  C          8.5970  -18.8890   -2.6420 C.2    48  THR48       0.2287
     15  O          9.6900  -18.9270   -2.0600 O.2    48  THR48      -0.2866
     16  CB         7.8670  -21.2480   -3.0570 C.3    48  THR48       0.1770
     17  OG1        7.4830  -22.2040   -4.0520 O.3    48  THR48      -0.2211
     18  CG2        6.6170  -21.0790   -2.1960 C.3    48  THR48       0.0375
     19  N          6.9720  -17.8900    0.9440 N.3    50  PHE50      -0.1241
     20  CA         6.0470  -18.2080    2.0360 C.3    50  PHE50       0.1605
     21  C          5.9560  -17.0490    3.0280 C.2    50  PHE50       0.2264
     22  O          6.9830  -16.5040    3.4500 O.2    50  PHE50      -0.2867
     23  CB         6.5410  -19.4140    2.8300 C.3    50  PHE50       0.0534
     24  CG         6.3220  -20.7370    2.1600 C.ar   50  PHE50      -0.0203
     25  CD1        5.0530  -21.2950    2.0980 C.ar   50  PHE50      -0.0042
     26  CD2        7.3970  -21.4560    1.6470 C.ar   50  PHE50      -0.0042
     27  CE1        4.8480  -22.5400    1.5050 C.ar   50  PHE50      -0.0003
     28  CE2        7.2000  -22.7000    1.0500 C.ar   50  PHE50      -0.0003
     29  CZ         5.9170  -23.2350    0.9740 C.ar   50  PHE50      -0.0000
     30  N          4.0680  -18.8010   -5.7830 N.3    64  ALA64      -0.1231
     31  CA         4.5360  -20.1900   -5.8600 C.3    64  ALA64       0.1694
     32  C          4.3840  -20.7780   -7.2460 C.2    64  ALA64       0.2591
     33  O          3.2770  -20.8630   -7.7660 O.2    64  ALA64      -0.2718
     34  CB         3.7990  -21.0570   -4.8560 C.3    64  ALA64       0.0304
     35  N          5.5030  -21.2210   -7.8130 N.am   65  ALA65      -0.1980
     36  CA         5.5500  -21.7350   -9.1810 C.3    65  ALA65       0.1597
     37  C          4.6800  -22.9720   -9.3740 C.2    65  ALA65       0.2287
     38  O          4.7430  -23.9100   -8.5790 O.2    65  ALA65      -0.2864
     39  CB         6.9780  -22.0560   -9.5500 C.3    65  ALA65       0.0319
     40  N          0.3990  -22.9680   -1.8090 N.3    74  ILE74      -0.1245
     41  CA         0.8380  -24.0100   -0.8870 C.3    74  ILE74       0.1561
     42  C          0.6810  -23.5050    0.5450 C.2    74  ILE74       0.2260
     43  O          1.0110  -22.3660    0.8440 O.2    74  ILE74      -0.2867
     44  CB         2.3090  -24.3900   -1.1690 C.3    74  ILE74       0.0252
     45  CG1        2.4300  -25.0190   -2.5620 C.3    74  ILE74       0.0019
     46  CG2        2.8390  -25.3540   -0.1010 C.3    74  ILE74       0.0019
     47  CD1        3.7880  -24.8680   -3.1880 C.3    74  ILE74       0.0001
     48  N          1.1480  -24.9650    4.6670 N.3    76  ILE76      -0.1245
     49  CA         1.6270  -26.0060    5.5670 C.3    76  ILE76       0.1561
     50  C          1.6610  -25.5040    7.0140 C.2    76  ILE76       0.2260
     51  O          1.6660  -24.3000    7.2490 O.2    76  ILE76      -0.2867
     52  CB         3.0240  -26.4700    5.1200 C.3    76  ILE76       0.0252
     53  CG1        4.0400  -25.3270    5.2110 C.3    76  ILE76       0.0019
     54  CG2        2.9640  -26.9940    3.6900 C.3    76  ILE76       0.0019
     55  CD1        5.4860  -25.7800    5.0990 C.3    76  ILE76       0.0001
     56  N          8.5170  -29.2100    7.6840 N.3    81  GLY81      -0.1210
     57  CA         9.3100  -29.1010    6.4750 C.3    81  GLY81       0.1956
     58  C         10.5570  -28.2580    6.6580 C.2    81  GLY81       0.2612
     59  O         10.8040  -27.7170    7.7290 O.2    81  GLY81      -0.2717
     60  N         11.3510  -28.1550    5.6050 N.am   82  ILE82      -0.1965
     61  CA        12.4810  -27.2360    5.5930 C.3    82  ILE82       0.1727
     62  C         11.9890  -25.7950    5.7380 C.2    82  ILE82       0.2616
     63  O         12.6120  -24.9970    6.4300 O.2    82  ILE82      -0.2715
     64  CB        13.3260  -27.4090    4.3020 C.3    82  ILE82       0.0290
     65  CG1       13.8750  -28.8430    4.1830 C.3    82  ILE82       0.0022
     66  CG2       14.4680  -26.3850    4.2660 C.3    82  ILE82       0.0023
     67  CD1       14.8330  -29.2700    5.2900 C.3    82  ILE82       0.0001
     68  N         10.8660  -25.4550    5.1050 N.am   83  ALA83      -0.1977
     69  CA        10.3160  -24.1050    5.2250 C.3    83  ALA83       0.1597
     70  C         10.0670  -23.7430    6.6900 C.2    83  ALA83       0.2287
     71  O         10.3830  -22.6370    7.1250 O.2    83  ALA83      -0.2864
     72  CB         9.0360  -23.9720    4.4230 C.3    83  ALA83       0.0319
     73  N         17.6110  -34.7130   -1.8800 N.3    99  PHE99      -0.1241
     74  CA        16.7850  -34.2720   -0.7450 C.3    99  PHE99       0.1605
     75  C         16.0560  -35.4330   -0.0540 C.2    99  PHE99       0.2264
     76  O         15.9110  -35.4450    1.1640 O.2    99  PHE99      -0.2867
     77  CB        15.7670  -33.2530   -1.2640 C.3    99  PHE99       0.0534
     78  CG        14.7980  -32.7120   -0.2260 C.ar   99  PHE99      -0.0203
     79  CD1       15.1710  -32.4970    1.0940 C.ar   99  PHE99      -0.0042
     80  CD2       13.5060  -32.3640   -0.6100 C.ar   99  PHE99      -0.0042
     81  CE1       14.2690  -31.9740    2.0070 C.ar   99  PHE99      -0.0003
     82  CE2       12.6090  -31.8320    0.2960 C.ar   99  PHE99      -0.0003
     83  CZ        12.9860  -31.6410    1.6060 C.ar   99  PHE99      -0.0000
     84  N         14.8090  -35.1720    7.0330 N.3   104  ARG104     -0.1245
     85  CA        13.9850  -33.9590    7.1020 C.3   104  ARG104      0.1563
     86  C         13.0010  -33.8340    5.9350 C.2   104  ARG104      0.2260
     87  O         12.1150  -32.9820    5.9630 O.2   104  ARG104     -0.2867
     88  CB        14.8680  -32.7180    7.1170 C.3   104  ARG104      0.0307
     89  CG        15.7360  -32.5770    8.3450 C.3   104  ARG104      0.0489
     90  CD        16.5910  -31.3340    8.3050 C.3   104  ARG104      0.2205
     91  NE        17.6780  -31.4270    7.3280 N.pl3 104  ARG104     -0.0865
     92  CZ        18.4870  -30.4200    7.0190 C.cat 104  ARG104      0.5346
     93  NH1       18.3380  -29.2380    7.5970 N.pl3 104  ARG104      0.1354
     94  NH2       19.4640  -30.5940    6.1430 N.pl3 104  ARG104      0.1354
     95  N          8.1540  -35.0240    5.3140 N.3   107  PHE107     -0.1227
     96  CA         6.9740  -34.1910    5.1000 C.3   107  PHE107      0.1736
     97  C          6.8290  -33.8130    3.6170 C.2   107  PHE107      0.2595
     98  O          5.7400  -33.8950    3.0590 O.2   107  PHE107     -0.2718
     99  CB         7.0270  -32.9390    5.9850 C.3   107  PHE107      0.0547
    100  CG         5.8710  -31.9930    5.7760 C.ar  107  PHE107     -0.0202
    101  CD1        4.6300  -32.2520    6.3490 C.ar  107  PHE107     -0.0042
    102  CD2        6.0270  -30.8430    5.0140 C.ar  107  PHE107     -0.0042
    103  CE1        3.5680  -31.3850    6.1660 C.ar  107  PHE107     -0.0003
    104  CE2        4.9710  -29.9720    4.8200 C.ar  107  PHE107     -0.0003
    105  CZ         3.7350  -30.2390    5.3980 C.ar  107  PHE107     -0.0000
    106  N          7.9340  -33.4310    2.9850 N.am  108  ALA108     -0.1980
    107  CA         7.9340  -33.0500    1.5680 C.3   108  ALA108      0.1597
    108  C          7.5600  -34.2250    0.6630 C.2   108  ALA108      0.2287
    109  O          6.8530  -34.0550   -0.3250 O.2   108  ALA108     -0.2864
    110  CB         9.3040  -32.4940    1.1680 C.3   108  ALA108      0.0319
    111  N          3.8750  -34.6130    0.6100 N.3   111  GLN111     -0.1245
    112  CA         3.2500  -33.5420   -0.1640 C.3   111  GLN111      0.1566
    113  C          3.3960  -33.7710   -1.6700 C.2   111  GLN111      0.2260
    114  O          2.4790  -33.4280   -2.4160 O.2   111  GLN111     -0.2867
    115  CB         3.7950  -32.1590    0.2270 C.3   111  GLN111      0.0367
    116  CG         3.6460  -31.8070    1.7150 C.3   111  GLN111      0.0905
    117  CD         2.2440  -31.3550    2.0920 C.2   111  GLN111      0.2608
    118  OE1        1.8830  -30.2000    1.8830 O.2   111  GLN111     -0.2717
    119  NE2        1.4590  -32.2610    2.6590 N.am  111  GLN111     -0.0878
    120  N          0.9770  -33.1880   -5.0020 N.3   115  THR115     -0.1218
    121  CA         1.2910  -32.1490   -5.9950 C.3   115  THR115      0.1862
    122  C          1.8700  -32.6990   -7.2920 C.2   115  THR115      0.2287
    123  O          1.7870  -32.0490   -8.3320 O.2   115  THR115     -0.2866
    124  CB         2.2950  -31.1150   -5.4310 C.3   115  THR115      0.1770
    125  OG1        3.5260  -31.7670   -5.0890 O.3   115  THR115     -0.2211
    126  CG2        1.8010  -30.4840   -4.1200 C.3   115  THR115      0.0375
    127  N          5.0180  -32.9500   -7.7850 N.3   117  TYR117     -0.1241
    128  CA         6.3210  -32.3210   -7.9840 C.3   117  TYR117      0.1605
    129  C          7.3860  -33.0480   -7.1840 C.2   117  TYR117      0.2264
    130  O          7.1420  -33.4360   -6.0460 O.2   117  TYR117     -0.2867
    131  CB         6.3030  -30.8540   -7.5530 C.3   117  TYR117      0.0534
    132  CG         7.5180  -30.1100   -8.0490 C.ar  117  TYR117     -0.0201
    133  CD1        7.6770  -29.8450   -9.4010 C.ar  117  TYR117     -0.0009
    134  CD2        8.5360  -29.7180   -7.1800 C.ar  117  TYR117     -0.0009
    135  CE1        8.8010  -29.1820   -9.8790 C.ar  117  TYR117      0.0417
    136  CE2        9.6650  -29.0530   -7.6560 C.ar  117  TYR117      0.0417
    137  CZ         9.7880  -28.7910   -9.0070 C.ar  117  TYR117      0.1957
    138  OH        10.8930  -28.1320   -9.4970 O.3   117  TYR117     -0.2866
    139  N         11.2110  -32.8020   -5.5800 N.3   119  THR119     -0.1218
    140  CA        12.3120  -31.9360   -5.1520 C.3   119  THR119      0.1862
    141  C         13.5770  -32.7610   -4.9050 C.2   119  THR119      0.2287
    142  O         13.6020  -33.5930   -3.9910 O.2   119  THR119     -0.2866
    143  CB        11.9380  -31.1800   -3.8560 C.3   119  THR119      0.1770
    144  OG1       10.8850  -30.2490   -4.1130 O.3   119  THR119     -0.2211
    145  CG2       13.0940  -30.2780   -3.3800 C.3   119  THR119      0.0375
    146  N         17.5320  -28.0040   -2.9600 N.3   122  MET122     -0.1245
    147  CA        16.8130  -26.8600   -2.3920 C.3   122  MET122      0.1570
    148  C         17.7400  -25.8190   -1.7670 C.2   122  MET122      0.2261
    149  O         18.7390  -26.1570   -1.1360 O.2   122  MET122     -0.2867
    150  CB        15.8310  -27.3650   -1.3210 C.3   122  MET122      0.0387
    151  CG        15.0030  -26.2900   -0.6200 C.3   122  MET122      0.0595
    152  SD        14.1480  -26.9780    0.8220 S.3   122  MET122     -0.1393
    153  CE        12.8680  -27.9190    0.0250 C.3   122  MET122      0.0692
    154  N         12.0340  -20.0750   -0.9230 N.3   139  GLN139     -0.1245
    155  CA        12.4420  -21.4450   -1.2050 C.3   139  GLN139      0.1566
    156  C         12.6560  -21.6360   -2.7020 C.2   139  GLN139      0.2260
    157  O         11.7270  -21.4880   -3.4820 O.2   139  GLN139     -0.2867
    158  CB        11.3600  -22.4010   -0.7040 C.3   139  GLN139      0.0367
    159  CG        11.8500  -23.8070   -0.4520 C.3   139  GLN139      0.0905
    160  CD        10.8250  -24.6830    0.2520 C.2   139  GLN139      0.2608
    161  OE1        9.6860  -24.7810   -0.1850 O.2   139  GLN139     -0.2717
    162  NE2       11.2400  -25.3420    1.3290 N.am  139  GLN139     -0.0878
    163  N         13.8130  -24.3490   -5.6340 N.3   141  LEU141     -0.1245
    164  CA        13.8380  -25.7920   -5.8400 C.3   141  LEU141      0.1561
    165  C         14.5000  -26.1750   -7.1490 C.2   141  LEU141      0.2260
    166  O         14.2920  -25.5270   -8.1820 O.2   141  LEU141     -0.2867
    167  CB        12.4170  -26.3570   -5.8260 C.3   141  LEU141      0.0270
    168  CG        11.5240  -26.0000   -4.6350 C.3   141  LEU141      0.0019
    169  CD1       10.1360  -26.5880   -4.8700 C.3   141  LEU141      0.0001
    170  CD2       12.1010  -26.5020   -3.3370 C.3   141  LEU141      0.0001
@<TRIPOS>BOND
     1    11     9    1
     2     8     9    2
     3     8     7    1
     4     9    10    1
     5   135   133   ar
     6   135   137   ar
     7     6     7    1
     8     6     5    1
     9     1     2    1
    10    39    36    1
    11   138   137    1
    12   133   132   ar
    13    37    36    1
    14    37    38    2
    15    36    35    1
    16     2     5    1
    17     2     3    1
    18   137   136   ar
    19   123   122    2
    20   166   165    2
    21   132   131    1
    22   132   134   ar
    23   128   127    1
    24   128   131    1
    25   128   129    1
    26     3     4    2
    27    35    32   am
    28    33    32    2
    29   136   134   ar
    30   122   121    1
    31    32    31    1
    32   129   130    2
    33   165   164    1
    34   121   124    1
    35   121   120    1
    36    31    30    1
    37    31    34    1
    38   164   167    1
    39   164   163    1
    40   167   168    1
    41   139   140    1
    42   124   125    1
    43   124   126    1
    44   140   141    1
    45   140   143    1
    46   141   142    2
    47   169   168    1
    48   168   170    1
    49    12    13    1
    50   144   143    1
    51    17    16    1
    52   143   145    1
    53    13    16    1
    54    13    14    1
    55   157   156    2
    56    47    45    1
    57    16    18    1
    58   146   147    1
    59   156   155    1
    60    14    15    2
    61    45    44    1
    62   114   113    2
    63   147   148    1
    64   147   150    1
    65    73    74    1
    66    40    41    1
    67   148   149    2
    68   113   112    1
    69   150   151    1
    70    77    74    1
    71    77    78    1
    72   155   154    1
    73   155   158    1
    74    44    41    1
    75    44    46    1
    76    41    42    1
    77    74    75    1
    78   158   159    1
    79   151   152    1
    80    80    78   ar
    81    80    82   ar
    82   159   160    1
    83   109   108    2
    84    78    79   ar
    85   161   160    2
    86   112   115    1
    87   112   111    1
    88    75    76    2
    89   153   152    1
    90   115   116    1
    91   160   162   am
    92    82    83   ar
    93    42    43    2
    94   108   107    1
    95    19    20    1
    96    29    28   ar
    97    29    27   ar
    98    28    26   ar
    99    79    81   ar
   100   110   107    1
   101    27    25   ar
   102   107   106    1
   103    83    81   ar
   104    26    24   ar
   105   116   117    1
   106   118   117    2
   107    20    23    1
   108    20    21    1
   109   117   119   am
   110    25    24   ar
   111    24    23    1
   112   106    97   am
   113    21    22    2
   114    98    97    2
   115    97    96    1
   116    54    52    1
   117    65    64    1
   118    65    67    1
   119    66    64    1
   120    64    61    1
   121    72    69    1
   122    48    49    1
   123   104   102   ar
   124   104   105   ar
   125   102   100   ar
   126    55    53    1
   127    96    95    1
   128    96    99    1
   129    68    69    1
   130    68    62   am
   131    52    53    1
   132    52    49    1
   133    69    70    1
   134   105   103   ar
   135    49    50    1
   136    61    60    1
   137    61    62    1
   138    60    58   am
   139    62    63    2
   140   100    99    1
   141   100   101   ar
   142    86    87    2
   143    86    85    1
   144    94    92    1
   145   103   101   ar
   146    57    58    1
   147    57    56    1
   148    58    59    2
   149    70    71    2
   150    50    51    2
   151    92    91    2
   152    92    93    1
   153    84    85    1
   154    85    88    1
   155    88    89    1
   156    91    90    1
   157    90    89    1
