@<TRIPOS>MOLECULE
tmp/1ykrA00.pdb
 168 159 0 0 0
SMALL
GASTEIGER

@<TRIPOS>ATOM
      1  N         -0.7800   23.4440    3.3300 N.3    10  ILE10      -0.1245
      2  CA         0.3670   23.6160    4.2150 C.3    10  ILE10       0.1561
      3  C          0.1320   23.1730    5.6520 C.2    10  ILE10       0.2260
      4  O          1.0850   22.9660    6.4030 O.2    10  ILE10      -0.2867
      5  CB         0.8510   25.0880    4.2390 C.3    10  ILE10       0.0252
      6  CG1       -0.3280   26.0210    4.5310 C.3    10  ILE10       0.0019
      7  CG2        1.5250   25.4380    2.9170 C.3    10  ILE10       0.0019
      8  CD1        0.0600   27.4830    4.6480 C.3    10  ILE10       0.0001
      9  N         -4.2200   22.4540   10.5580 N.3    13  GLY13      -0.1210
     10  CA        -4.8110   23.3640   11.5230 C.3    13  GLY13       0.1956
     11  C         -5.6210   22.7090   12.6270 C.2    13  GLY13       0.2612
     12  O         -5.7820   21.4870   12.6630 O.2    13  GLY13      -0.2717
     13  N         -6.1330   23.5300   13.5390 N.am   14  THR14      -0.1952
     14  CA        -6.9330   23.0330   14.6510 C.3    14  THR14       0.1897
     15  C         -8.4160   23.2530   14.3710 C.2    14  THR14       0.2313
     16  O         -9.2740   22.5780   14.9420 O.2    14  THR14      -0.2863
     17  CB        -6.5320   23.7320   15.9840 C.3    14  THR14       0.1794
     18  OG1       -6.1250   22.7420   16.9370 O.3    14  THR14      -0.2208
     19  CG2       -7.6980   24.5300   16.5640 C.3    14  THR14       0.0378
     20  N         -5.4620   24.4320    6.0800 N.3    18  VAL18      -0.1245
     21  CA        -4.7780   25.7000    5.8130 C.3    18  VAL18       0.1561
     22  C         -4.0920   25.5140    4.4760 C.2    18  VAL18       0.2260
     23  O         -3.2220   24.6550    4.3350 O.2    18  VAL18      -0.2867
     24  CB        -3.6890   26.0130    6.8470 C.3    18  VAL18       0.0252
     25  CG1       -3.0970   27.3890    6.5820 C.3    18  VAL18       0.0019
     26  CG2       -4.2930   25.9600    8.2420 C.3    18  VAL18       0.0019
     27  N         -2.2400   32.8790    3.3420 N.3    31  ALA31      -0.1245
     28  CA        -2.5000   31.6410    4.0760 C.3    31  ALA31       0.1562
     29  C         -4.0160   31.5940    4.2870 C.2    31  ALA31       0.2260
     30  O         -4.5420   32.3930    5.0530 O.2    31  ALA31      -0.2867
     31  CB        -1.7980   31.6790    5.4310 C.3    31  ALA31       0.0290
     32  N         -7.2970   29.7760    5.6420 N.3    33  LYS33      -0.1245
     33  CA        -7.7490   28.8410    6.6530 C.3    33  LYS33       0.1561
     34  C         -9.2350   28.5910    6.4400 C.2    33  LYS33       0.2260
     35  O        -10.0430   29.5230    6.4510 O.2    33  LYS33      -0.2867
     36  CB        -7.5260   29.4190    8.0480 C.3    33  LYS33       0.0271
     37  CG        -8.0220   28.5220    9.1860 C.3    33  LYS33       0.0035
     38  CD        -7.3510   27.1500    9.1620 C.3    33  LYS33       0.0206
     39  CE        -7.8120   26.2850   10.3280 C.3    33  LYS33       0.1093
     40  NZ        -7.5560   26.9540   11.6350 N.3    33  LYS33      -0.1314
     41  N          0.4080   38.1890   13.1340 N.3    64  VAL64      -0.1245
     42  CA         0.0950   37.9030   11.7380 C.3    64  VAL64       0.1561
     43  C         -1.1850   38.6990   11.4190 C.2    64  VAL64       0.2260
     44  O         -2.1910   38.5960   12.1110 O.2    64  VAL64      -0.2867
     45  CB        -0.1460   36.3890   11.5140 C.3    64  VAL64       0.0252
     46  CG1       -0.5720   36.1160   10.0600 C.3    64  VAL64       0.0019
     47  CG2        1.1300   35.6340   11.8340 C.3    64  VAL64       0.0019
     48  N         -4.9980   35.0690    5.8280 N.3    80  PHE80      -0.1227
     49  CA        -3.8960   35.6250    6.5760 C.3    80  PHE80       0.1736
     50  C         -2.6810   35.9240    5.7060 C.2    80  PHE80       0.2595
     51  O         -2.5060   35.3440    4.6230 O.2    80  PHE80      -0.2718
     52  CB        -3.4730   34.6430    7.6930 C.3    80  PHE80       0.0547
     53  CG        -4.4850   34.4760    8.8080 C.ar   80  PHE80      -0.0202
     54  CD1       -4.5740   35.4220    9.8210 C.ar   80  PHE80      -0.0042
     55  CD2       -5.3660   33.3940    8.8230 C.ar   80  PHE80      -0.0042
     56  CE1       -5.5370   35.3090   10.8420 C.ar   80  PHE80      -0.0003
     57  CE2       -6.3380   33.2710    9.8410 C.ar   80  PHE80      -0.0003
     58  CZ        -6.4200   34.2330   10.8390 C.ar   80  PHE80      -0.0000
     59  N         -1.8540   36.8610    6.1820 N.am   81  GLU81      -0.1965
     60  CA        -0.6170   37.1620    5.4650 C.3    81  GLU81       0.1733
     61  C          0.1910   35.8690    5.5700 C.2    81  GLU81       0.2616
     62  O          0.1960   35.2180    6.6140 O.2    81  GLU81      -0.2715
     63  CB         0.1680   38.3070    6.1330 C.3    81  GLU81       0.0429
     64  CG         0.7760   38.0030    7.5130 C.3    81  GLU81       0.1163
     65  CD         1.6780   39.1040    8.0180 C.2    81  GLU81       0.3649
     66  OE1        2.6680   39.4480    7.3250 O.co2  81  GLU81      -0.2457
     67  OE2        1.3970   39.6630    9.0980 O.co2  81  GLU81      -0.2457
     68  N          0.8770   35.5380    4.4700 N.am   82  PHE82      -0.1960
     69  CA         1.7100   34.3450    4.3560 C.3    82  PHE82       0.1771
     70  C          3.1640   34.4450    4.8380 C.2    82  PHE82       0.2619
     71  O          3.8740   35.4410    4.6050 O.2    82  PHE82      -0.2715
     72  CB         1.7190   33.8390    2.9010 C.3    82  PHE82       0.0574
     73  CG         2.5330   32.6000    2.7020 C.ar   82  PHE82      -0.0200
     74  CD1        2.0070   31.3500    3.0000 C.ar   82  PHE82      -0.0042
     75  CD2        3.8460   32.6980    2.2580 C.ar   82  PHE82      -0.0042
     76  CE1        2.7890   30.1960    2.8590 C.ar   82  PHE82      -0.0003
     77  CE2        4.6310   31.5640    2.1140 C.ar   82  PHE82      -0.0003
     78  CZ         4.1090   30.3140    2.4160 C.ar   82  PHE82      -0.0000
     79  N          3.6040   33.3750    5.4960 N.am   83  LEU83      -0.1963
     80  CA         4.9760   33.2790    5.9660 C.3    83  LEU83       0.1728
     81  C          5.5710   31.9910    5.4200 C.2    83  LEU83       0.2616
     82  O          4.8280   31.1000    5.0080 O.2    83  LEU83      -0.2715
     83  CB         4.9800   33.2750    7.4700 C.3    83  LEU83       0.0311
     84  CG         4.9700   34.7290    7.9450 C.3    83  LEU83       0.0022
     85  CD1        3.5750   35.1010    8.4180 C.3    83  LEU83       0.0001
     86  CD2        6.0090   34.9010    9.0400 C.3    83  LEU83       0.0001
     87  N          6.9030   31.8910    5.3860 N.am   84  HIS84      -0.1959
     88  CA         7.5300   30.6850    4.8840 C.3    84  HIS84       0.1787
     89  C          7.9680   29.7270    5.9370 C.2    84  HIS84       0.2620
     90  O          8.1830   28.5680    5.6340 O.2    84  HIS84      -0.2715
     91  CB         8.7450   30.9810    4.0010 C.3    84  HIS84       0.0785
     92  CG         8.4020   31.7130    2.7550 C.ar   84  HIS84       0.0821
     93  ND1        7.9480   33.0070    2.7840 N.ar   84  HIS84      -0.2267
     94  CD2        8.3730   31.3310    1.4570 C.ar   84  HIS84       0.1154
     95  CE1        7.6390   33.4020    1.5670 C.ar   84  HIS84       0.1986
     96  NE2        7.8870   32.4000    0.7400 N.ar   84  HIS84      -0.2212
     97  N          8.0620   30.1810    7.1760 N.am   85  GLN85      -0.1963
     98  CA         8.4700   29.2390    8.1760 C.3    85  GLN85       0.1733
     99  C          7.8880   29.4630    9.5780 C.2    85  GLN85       0.2616
    100  O          7.6210   30.6010    9.9650 O.2    85  GLN85      -0.2715
    101  CB         9.9840   29.2100    8.2550 C.3    85  GLN85       0.0408
    102  CG        10.5390   27.9880    8.8850 C.3    85  GLN85       0.0908
    103  CD        11.9510   27.7240    8.4460 C.2    85  GLN85       0.2608
    104  OE1       12.8820   27.7600    9.2620 O.2    85  GLN85      -0.2717
    105  NE2       12.1300   27.4900    7.1520 N.am   85  GLN85      -0.0878
    106  N          7.6180   28.3860   10.3180 N.am   86  ASP86      -0.1971
    107  CA         7.1170   28.5760   11.6750 C.3    86  ASP86       0.1709
    108  C          8.2870   28.2300   12.5700 C.2    86  ASP86       0.2293
    109  O          9.2580   27.6320   12.1160 O.2    86  ASP86      -0.2864
    110  CB         5.9060   27.6840   11.9590 C.3    86  ASP86       0.1436
    111  CG         6.1770   26.2000   11.7310 C.2    86  ASP86       0.3671
    112  OD1        7.1670   25.6670   12.2600 O.co2  86  ASP86      -0.2456
    113  OD2        5.3650   25.5550   11.0320 O.co2  86  ASP86      -0.2456
    114  N          9.5810   24.4260   12.7910 N.3    89  LYS89      -0.1245
    115  CA        10.4880   23.9890   11.7300 C.3    89  LYS89       0.1561
    116  C         11.8720   24.6130   11.8980 C.2    89  LYS89       0.2260
    117  O         12.8960   23.9610   11.6760 O.2    89  LYS89      -0.2867
    118  CB         9.9400   24.3500   10.3420 C.3    89  LYS89       0.0271
    119  CG        10.8510   23.8320    9.2290 C.3    89  LYS89       0.0035
    120  CD        10.4810   24.3600    7.8540 C.3    89  LYS89       0.0206
    121  CE        11.5000   23.8820    6.8240 C.3    89  LYS89       0.1093
    122  NZ        11.6530   24.8140    5.6690 N.3    89  LYS89      -0.1314
    123  N          4.5380   25.9930   16.6020 N.3   131  GLN131     -0.1231
    124  CA         3.8930   25.9060   15.2930 C.3   131  GLN131      0.1698
    125  C          3.0190   27.1110   14.9700 C.2   131  GLN131      0.2592
    126  O          2.6820   27.3260   13.8070 O.2   131  GLN131     -0.2718
    127  CB         3.0640   24.6270   15.1890 C.3   131  GLN131      0.0381
    128  CG         2.3710   24.2690   16.4720 C.3   131  GLN131      0.0905
    129  CD         3.0500   23.1170   17.1800 C.2   131  GLN131      0.2608
    130  OE1        2.7550   21.9520   16.9010 O.2   131  GLN131     -0.2717
    131  NE2        3.9780   23.4300   18.0890 N.am  131  GLN131     -0.0878
    132  N          2.6690   27.8900   15.9930 N.am  132  ASN132     -0.1974
    133  CA         1.8470   29.0950   15.8290 C.3   132  ASN132      0.1688
    134  C          2.6800   30.3700   15.8220 C.2   132  ASN132      0.2292
    135  O          2.1380   31.4600   15.8460 O.2   132  ASN132     -0.2864
    136  CB         0.8250   29.2160   16.9680 C.3   132  ASN132      0.1181
    137  CG        -0.1840   28.1160   16.9590 C.2   132  ASN132      0.2629
    138  OD1       -0.2440   27.3280   16.0160 O.2   132  ASN132     -0.2716
    139  ND2       -1.0050   28.0540   18.0090 N.am  132  ASN132     -0.0877
    140  N          5.3020   32.4400   13.6950 N.3   134  LEU134     -0.1245
    141  CA         5.8340   32.4810   12.3370 C.3   134  LEU134      0.1561
    142  C          6.9390   33.4890   12.1830 C.2   134  LEU134      0.2260
    143  O          6.8850   34.5610   12.7640 O.2   134  LEU134     -0.2867
    144  CB         4.7200   32.8330   11.3940 C.3   134  LEU134      0.0270
    145  CG         3.5190   31.9180   11.6010 C.3   134  LEU134      0.0019
    146  CD1        2.5290   32.4380   10.6090 C.3   134  LEU134      0.0001
    147  CD2        3.8240   30.4520   11.3430 C.3   134  LEU134      0.0001
    148  N          0.4910   33.9070   15.5860 N.3   144  ALA144     -0.1231
    149  CA        -0.5010   33.5240   14.5910 C.3   144  ALA144      0.1694
    150  C         -1.6400   32.7760   15.2680 C.2   144  ALA144      0.2592
    151  O         -1.4460   32.1060   16.2910 O.2   144  ALA144     -0.2718
    152  CB         0.1340   32.6680   13.5140 C.3   144  ALA144      0.0304
    153  N         -2.8270   32.9050   14.6860 N.am  145  ASP145     -0.1974
    154  CA        -4.0230   32.2790   15.2220 C.3   145  ASP145      0.1709
    155  C         -4.3940   32.9290   16.5380 C.2   145  ASP145      0.2293
    156  O         -4.9350   32.2870   17.4300 O.2   145  ASP145     -0.2864
    157  CB        -3.7920   30.7890   15.4130 C.3   145  ASP145      0.1436
    158  CG        -4.3470   29.9850   14.2760 C.2   145  ASP145      0.3671
    159  OD1       -4.3510   30.5170   13.1490 O.co2 145  ASP145     -0.2456
    160  OD2       -4.7760   28.8360   14.5070 O.co2 145  ASP145     -0.2456
    161  N         -8.3930   33.3710   17.7950 N.3   148  LEU148     -0.1245
    162  CA        -9.2710   32.3580   17.2130 C.3   148  LEU148      0.1561
    163  C         -9.7900   31.3640   18.2460 C.2   148  LEU148      0.2260
    164  O        -10.7150   30.6000   17.9670 O.2   148  LEU148     -0.2867
    165  CB        -8.5550   31.5930   16.0970 C.3   148  LEU148      0.0270
    166  CG        -8.1140   32.3870   14.8710 C.3   148  LEU148      0.0019
    167  CD1       -7.6810   31.4210   13.7790 C.3   148  LEU148      0.0001
    168  CD2       -9.2570   33.2650   14.3770 C.3   148  LEU148      0.0001
@<TRIPOS>BOND
     1    96    94   ar
     2    96    95   ar
     3    94    92   ar
     4    95    93   ar
     5    77    75   ar
     6    77    78   ar
     7    75    73   ar
     8    78    76   ar
     9    73    72    1
    10    73    74   ar
    11    92    93   ar
    12    92    91    1
    13    76    74   ar
    14    72    69    1
    15     7     5    1
    16     1     2    1
    17    27    28    1
    18    91    88    1
    19    28    29    1
    20    28    31    1
    21     2     5    1
    22     2     3    1
    23     5     6    1
    24    29    30    2
    25    23    22    2
    26    69    68    1
    27    69    70    1
    28    68    61   am
    29    22    21    1
    30     6     8    1
    31    71    70    2
    32    51    50    2
    33    70    79   am
    34    88    87    1
    35    88    89    1
    36    82    81    2
    37    87    81   am
    38    81    80    1
    39    60    61    1
    40    60    63    1
    41    60    59    1
    42    79    80    1
    43    61    62    2
    44    90    89    2
    45    32    33    1
    46     3     4    2
    47   122   121    1
    48    50    59   am
    49    50    49    1
    50    21    20    1
    51    21    24    1
    52    48    49    1
    53    89    97   am
    54    80    83    1
    55    63    64    1
    56    34    35    2
    57    34    33    1
    58    49    52    1
    59    25    24    1
    60    33    36    1
    61   121   120    1
    62    24    26    1
    63   105   103   am
    64    97    98    1
    65    66    65   ar
    66    83    84    1
    67    64    65    1
    68    52    53    1
    69   120   119    1
    70    84    85    1
    71    84    86    1
    72    65    67   ar
    73    36    37    1
    74    98   101    1
    75    98    99    1
    76   101   102    1
    77   103   102    1
    78   103   104    2
    79    53    55   ar
    80    53    54   ar
    81    55    57   ar
    82    38    37    1
    83    38    39    1
    84   119   118    1
    85    99   100    2
    86    99   106   am
    87    54    56   ar
    88    57    58   ar
    89    46    45    1
    90   106   107    1
    91    39    40    1
    92   118   115    1
    93     9    10    1
    94   146   145    1
    95    58    56   ar
    96   113   111   ar
    97   147   145    1
    98   144   145    1
    99   144   141    1
   100    43    42    1
   101    43    44    2
   102    45    42    1
   103    45    47    1
   104    10    11    1
   105   107   110    1
   106   107   108    1
   107   117   116    2
   108   115   116    1
   109   115   114    1
   110   111   110    1
   111   111   112   ar
   112    42    41    1
   113   109   108    2
   114   142   141    1
   115   142   143    2
   116   141   140    1
   117    11    12    2
   118    11    13   am
   119   159   158   ar
   120   152   149    1
   121    13    14    1
   122   167   166    1
   123   126   125    2
   124   158   160   ar
   125   158   157    1
   126    15    14    1
   127    15    16    2
   128   168   166    1
   129   149   150    1
   130   149   148    1
   131    14    17    1
   132   153   154    1
   133   153   150   am
   134   166   165    1
   135   125   124    1
   136   125   132   am
   137   127   124    1
   138   127   128    1
   139   154   157    1
   140   154   155    1
   141   150   151    2
   142   124   123    1
   143   134   133    1
   144   134   135    2
   145   133   132    1
   146   133   136    1
   147    17    19    1
   148    17    18    1
   149   138   137    2
   150   165   162    1
   151   128   129    1
   152   155   156    2
   153   130   129    2
   154   137   136    1
   155   137   139   am
   156   129   131   am
   157   162   161    1
   158   162   163    1
   159   164   163    2
