@<TRIPOS>MOLECULE
tmp/1yl7H00.pdb
 207 202 0 0 0
SMALL
GASTEIGER

@<TRIPOS>ATOM
      1  N         87.2530   50.1950   80.1790 N.3     6  LEU6       -0.1231
      2  CA        87.2240   51.3680   79.3100 C.3     6  LEU6        0.1693
      3  C         88.0220   51.0750   78.0440 C.2     6  LEU6        0.2592
      4  O         89.1830   50.6570   78.1200 O.2     6  LEU6       -0.2718
      5  CB        87.8030   52.5920   80.0310 C.3     6  LEU6        0.0284
      6  CG        87.1670   52.9820   81.3720 C.3     6  LEU6        0.0019
      7  CD1       88.0770   53.9120   82.1570 C.3     6  LEU6        0.0001
      8  CD2       85.7820   53.6070   81.1920 C.3     6  LEU6        0.0001
      9  N         87.3950   51.2890   76.8880 N.am    7  GLY7       -0.1957
     10  CA        88.0070   51.0020   75.5840 C.3     7  GLY7        0.1869
     11  C         87.6660   49.6230   75.0410 C.2     7  GLY7        0.2309
     12  O         88.4080   49.0720   74.2230 O.2     7  GLY7       -0.2863
     13  N         85.7540   48.1750   72.8940 N.3     9  LYS9       -0.1231
     14  CA        85.6540   47.8580   71.4660 C.3     9  LYS9        0.1693
     15  C         87.0330   47.8820   70.8000 C.2     9  LYS9        0.2593
     16  O         87.1990   47.3880   69.6810 O.2     9  LYS9       -0.2718
     17  CB        84.6870   48.8160   70.7500 C.3     9  LYS9        0.0285
     18  CG        83.2130   48.6450   71.1220 C.3     9  LYS9        0.0035
     19  CD        82.3340   49.6780   70.4140 C.3     9  LYS9        0.0206
     20  CE        80.8610   49.4410   70.6970 C.3     9  LYS9        0.1093
     21  NZ        79.9570   50.2750   69.8470 N.3     9  LYS9       -0.1314
     22  N         88.0180   48.4440   71.5030 N.am   10  GLY10      -0.1942
     23  CA        89.3850   48.5490   71.0010 C.3    10  GLY10       0.2014
     24  C         90.0820   47.2070   70.9220 C.2    10  GLY10       0.2639
     25  O         89.6070   46.2150   71.4920 O.2    10  GLY10      -0.2714
     26  N         91.2150   47.1760   70.2230 N.am   11  LYS11      -0.1963
     27  CA        91.9010   45.9190   69.9310 C.3    11  LYS11       0.1728
     28  C         92.3630   45.1820   71.1840 C.2    11  LYS11       0.2616
     29  O         92.1510   43.9760   71.2990 O.2    11  LYS11      -0.2715
     30  CB        93.0490   46.1290   68.9340 C.3    11  LYS11       0.0311
     31  CG        92.7510   45.5830   67.5350 C.3    11  LYS11       0.0038
     32  CD        93.4440   46.3910   66.4280 C.3    11  LYS11       0.0206
     33  CE        92.4550   47.3470   65.7550 C.3    11  LYS11       0.1093
     34  NZ        93.1030   48.2640   64.7750 N.3    11  LYS11      -0.1314
     35  N         92.9750   45.9010   72.1220 N.am   12  VAL12      -0.1963
     36  CA        93.3720   45.2970   73.3990 C.3    12  VAL12       0.1727
     37  C         92.1740   45.2300   74.3480 C.2    12  VAL12       0.2616
     38  O         91.9770   44.2220   75.0220 O.2    12  VAL12      -0.2715
     39  CB        94.5810   46.0150   74.0790 C.3    12  VAL12       0.0290
     40  CG1       95.0000   45.2720   75.3450 C.3    12  VAL12       0.0023
     41  CG2       95.7710   46.1220   73.1270 C.3    12  VAL12       0.0023
     42  N         91.3750   46.2980   74.3800 N.am   13  GLY13      -0.1955
     43  CA        90.1590   46.3560   75.1990 C.3    13  GLY13       0.1869
     44  C         89.2200   45.1780   75.0010 C.2    13  GLY13       0.2309
     45  O         88.7560   44.5780   75.9760 O.2    13  GLY13      -0.2863
     46  N         82.6150   49.6730   78.4450 N.3    32  LEU32      -0.1231
     47  CA        82.5290   51.0960   78.1040 C.3    32  LEU32       0.1693
     48  C         83.4940   51.5170   76.9980 C.2    32  LEU32       0.2592
     49  O         84.7020   51.2980   77.0910 O.2    32  LEU32      -0.2718
     50  CB        82.7040   51.9750   79.3500 C.3    32  LEU32       0.0284
     51  CG        81.7900   51.7020   80.5550 C.3    32  LEU32       0.0019
     52  CD1       81.8890   52.8340   81.5590 C.3    32  LEU32       0.0001
     53  CD2       80.3350   51.4950   80.1460 C.3    32  LEU32       0.0001
     54  N         82.9420   52.1200   75.9490 N.am   33  ASP33      -0.1960
     55  CA        83.7330   52.6000   74.8200 C.3    33  ASP33       0.1840
     56  C         83.3690   54.0480   74.4530 C.2    33  ASP33       0.2622
     57  O         82.3570   54.5830   74.9240 O.2    33  ASP33      -0.2715
     58  CB        83.5760   51.6600   73.6210 C.3    33  ASP33       0.1450
     59  CG        84.7590   51.7210   72.6740 C.2    33  ASP33       0.3671
     60  OD1       84.5850   52.2710   71.5630 O.co2  33  ASP33      -0.2456
     61  OD2       85.8570   51.2290   73.0400 O.co2  33  ASP33      -0.2456
     62  N         84.1990   54.6670   73.6130 N.am   34  ALA34      -0.1963
     63  CA        84.1250   56.1040   73.3100 C.3    34  ALA34       0.1728
     64  C         82.7080   56.6700   73.2560 C.2    34  ALA34       0.2617
     65  O         81.8710   56.1940   72.4890 O.2    34  ALA34      -0.2715
     66  CB        84.8840   56.4160   72.0170 C.3    34  ALA34       0.0334
     67  N         82.4510   57.6770   74.0890 N.am   35  GLY35      -0.1940
     68  CA        81.1680   58.3720   74.1100 C.3    35  GLY35       0.2014
     69  C         80.2050   57.9390   75.2020 C.2    35  GLY35       0.2638
     70  O         79.2140   58.6270   75.4610 O.2    35  GLY35      -0.2714
     71  N         80.4880   56.8010   75.8360 N.am   36  ASP36      -0.1971
     72  CA        79.6310   56.2610   76.8970 C.3    36  ASP36       0.1709
     73  C         79.8810   56.9510   78.2420 C.2    36  ASP36       0.2293
     74  O         81.0350   57.1710   78.6160 O.2    36  ASP36      -0.2864
     75  CB        79.8230   54.7460   77.0420 C.3    36  ASP36       0.1436
     76  CG        79.2690   53.9600   75.8610 C.2    36  ASP36       0.3671
     77  OD1       78.2100   54.3390   75.3140 O.co2  36  ASP36      -0.2456
     78  OD2       79.8930   52.9440   75.4880 O.co2  36  ASP36      -0.2456
     79  N         80.4580   57.6520   82.1510 N.3    38  LEU38      -0.1245
     80  CA        81.2260   56.9260   83.1720 C.3    38  LEU38       0.1561
     81  C         80.3730   56.4830   84.3670 C.2    38  LEU38       0.2260
     82  O         80.8420   55.7400   85.2370 O.2    38  LEU38      -0.2867
     83  CB        82.4120   57.7760   83.6490 C.3    38  LEU38       0.0270
     84  CG        83.4170   58.2410   82.5860 C.3    38  LEU38       0.0019
     85  CD1       84.1590   59.4950   83.0380 C.3    38  LEU38       0.0001
     86  CD2       84.3980   57.1310   82.2120 C.3    38  LEU38       0.0001
     87  N         92.1850   50.5830   78.4380 N.3    52  PHE52      -0.1227
     88  CA        92.9480   50.6450   77.1950 C.3    52  PHE52       0.1736
     89  C         92.2180   51.5750   76.2160 C.2    52  PHE52       0.2596
     90  O         91.4040   51.1260   75.4040 O.2    52  PHE52      -0.2718
     91  CB        93.1450   49.2470   76.5930 C.3    52  PHE52       0.0547
     92  CG        94.3000   48.4830   77.1870 C.ar   52  PHE52      -0.0202
     93  CD1       94.0880   47.5420   78.1910 C.ar   52  PHE52      -0.0042
     94  CD2       95.5990   48.7010   76.7390 C.ar   52  PHE52      -0.0042
     95  CE1       95.1540   46.8340   78.7440 C.ar   52  PHE52      -0.0003
     96  CE2       96.6700   47.9970   77.2840 C.ar   52  PHE52      -0.0003
     97  CZ        96.4470   47.0620   78.2920 C.ar   52  PHE52      -0.0000
     98  N         92.5080   52.8740   76.3160 N.am   53  THR53      -0.1939
     99  CA        91.8150   53.9020   75.5270 C.3    53  THR53       0.2028
    100  C         92.7800   54.7870   74.7260 C.2    53  THR53       0.2642
    101  O         93.3700   54.3450   73.7320 O.2    53  THR53      -0.2714
    102  CB        90.8900   54.8020   76.4150 C.3    53  THR53       0.1808
    103  OG1       91.6470   55.3580   77.4970 O.3    53  THR53      -0.2208
    104  CG2       89.7080   54.0180   76.9740 C.3    53  THR53       0.0379
    105  N         92.9290   56.0330   75.1760 N.am   54  HIS54      -0.1959
    106  CA        93.7250   57.0530   74.4950 C.3    54  HIS54       0.1772
    107  C         94.2940   58.0520   75.5140 C.2    54  HIS54       0.2462
    108  O         93.6110   58.4050   76.4820 O.2    54  HIS54      -0.2730
    109  CB        92.8620   57.7860   73.4610 C.3    54  HIS54       0.0785
    110  CG        93.6500   58.5600   72.4510 C.ar   54  HIS54       0.0821
    111  ND1       94.0330   59.8690   72.6500 N.ar   54  HIS54      -0.2267
    112  CD2       94.1300   58.2070   71.2340 C.ar   54  HIS54       0.1154
    113  CE1       94.7140   60.2900   71.5990 C.ar   54  HIS54       0.1986
    114  NE2       94.7860   59.3020   70.7250 N.ar   54  HIS54      -0.2212
    115  N         95.5540   58.4970   75.3110 N.am   55  PRO55      -0.2727
    116  CA        96.1950   59.4990   76.1820 C.3    55  PRO55       0.1402
    117  C         95.3570   60.7620   76.4430 C.2    55  PRO55       0.2269
    118  O         95.3220   61.2510   77.5760 O.2    55  PRO55      -0.2865
    119  CB        97.4890   59.8570   75.4260 C.3    55  PRO55       0.0296
    120  CG        97.3630   59.2250   74.0590 C.3    55  PRO55       0.0237
    121  CD        96.4710   58.0450   74.2480 C.3    55  PRO55       0.0939
    122  N         92.1840   61.1540   76.6660 N.3    57  VAL57      -0.1245
    123  CA        90.9660   60.9350   77.4570 C.3    57  VAL57       0.1561
    124  C         91.2010   60.2620   78.8210 C.2    57  VAL57       0.2260
    125  O         90.3430   60.3390   79.7070 O.2    57  VAL57      -0.2867
    126  CB        89.8770   60.1560   76.6540 C.3    57  VAL57       0.0252
    127  CG1       89.3630   60.9940   75.4900 C.3    57  VAL57       0.0019
    128  CG2       90.4060   58.8070   76.1650 C.3    57  VAL57       0.0019
    129  N         89.4170   60.0790   82.5720 N.3    61  ASN61      -0.1240
    130  CA        88.9800   58.7400   82.9960 C.3    61  ASN61       0.1653
    131  C         89.4120   58.4200   84.4250 C.2    61  ASN61       0.2266
    132  O         88.7350   57.6720   85.1330 O.2    61  ASN61      -0.2867
    133  CB        89.5360   57.6530   82.0620 C.3    61  ASN61       0.1155
    134  CG        88.9000   57.6670   80.6780 C.2    61  ASN61       0.2627
    135  OD1       88.0310   58.4870   80.3790 O.2    61  ASN61      -0.2716
    136  ND2       89.3400   56.7430   79.8220 N.am   61  ASN61      -0.0877
    137  N         96.7370   50.5970   81.1680 N.3    75  GLY75      -0.1210
    138  CA        97.7760   50.3050   80.1810 C.3    75  GLY75       0.1956
    139  C         97.8910   51.3220   79.0600 C.2    75  GLY75       0.2613
    140  O         98.8090   51.2530   78.2320 O.2    75  GLY75      -0.2717
    141  N         96.9560   52.2660   79.0270 N.am   76  THR76      -0.1938
    142  CA        96.9530   53.3150   78.0180 C.3    76  THR76       0.2028
    143  C         98.2420   54.1410   78.0980 C.2    76  THR76       0.2642
    144  O         98.5830   54.6820   79.1560 O.2    76  THR76      -0.2714
    145  CB        95.7120   54.2060   78.1590 C.3    76  THR76       0.1808
    146  OG1       94.5430   53.3800   78.1810 O.3    76  THR76      -0.2208
    147  CG2       95.6200   55.1740   77.0000 C.3    76  THR76       0.0379
    148  N         98.9420   54.2180   76.9660 N.am   77  THR77      -0.1950
    149  CA       100.2920   54.7870   76.8900 C.3    77  THR77       0.1897
    150  C        100.3160   56.3240   76.8650 C.2    77  THR77       0.2313
    151  O         99.3400   56.9650   76.4690 O.2    77  THR77      -0.2863
    152  CB       101.0630   54.2300   75.6650 C.3    77  THR77       0.1794
    153  OG1      100.2240   54.2820   74.5040 O.3    77  THR77      -0.2208
    154  CG2      101.4950   52.7860   75.9080 C.3    77  THR77       0.0378
    155  N        101.0230   50.4790   83.9410 N.3   102  ALA102     -0.1231
    156  CA       102.1830   49.8260   83.3420 C.3   102  ALA102      0.1679
    157  C        102.2670   50.1870   81.8660 C.2   102  ALA102      0.2434
    158  O        101.2400   50.2160   81.1810 O.2   102  ALA102     -0.2733
    159  CB       102.1020   48.3090   83.5190 C.3   102  ALA102      0.0304
    160  N        103.4820   50.4920   81.3730 N.am  103  PRO103     -0.2718
    161  CA       103.6790   50.8050   79.9560 C.3   103  PRO103      0.1535
    162  C        103.9160   49.5570   79.1100 C.2   103  PRO103      0.2599
    163  O        104.1520   49.6560   77.9030 O.2   103  PRO103     -0.2715
    164  CB       104.9360   51.6720   79.9710 C.3   103  PRO103      0.0310
    165  CG       105.7200   51.1810   81.1520 C.3   103  PRO103      0.0237
    166  CD       104.7400   50.5840   82.1390 C.3   103  PRO103      0.0939
    167  N        103.8930   48.3980   79.7630 N.am  104  ASN104     -0.1959
    168  CA       103.9780   47.1040   79.1020 C.3   104  ASN104      0.1819
    169  C        103.4030   46.0300   80.0220 C.2   104  ASN104      0.2621
    170  O        103.9180   45.7830   81.1250 O.2   104  ASN104     -0.2715
    171  CB       105.4100   46.7740   78.6970 C.3   104  ASN104      0.1195
    172  CG       105.4700   45.8310   77.5120 C.2   104  ASN104      0.2630
    173  OD1      104.7030   44.8640   77.4230 O.2   104  ASN104     -0.2716
    174  ND2      106.3860   46.1040   76.5890 N.am  104  ASN104     -0.0877
    175  N        102.3010   45.4300   79.5870 N.am  105  PHE105     -0.1974
    176  CA       101.6390   44.4280   80.3850 C.3   105  PHE105      0.1639
    177  C        102.0130   43.0020   79.9950 C.2   105  PHE105      0.2290
    178  O        101.5070   42.0440   80.6050 O.2   105  PHE105     -0.2864
    179  CB       100.1360   44.6180   80.2970 C.3   105  PHE105      0.0560
    180  CG        99.5830   45.5090   81.3540 C.ar  105  PHE105     -0.0200
    181  CD1       99.1700   46.7980   81.0450 C.ar  105  PHE105     -0.0042
    182  CD2       99.4750   45.0570   82.6710 C.ar  105  PHE105     -0.0042
    183  CE1       98.6460   47.6320   82.0360 C.ar  105  PHE105     -0.0003
    184  CE2       98.9510   45.8770   83.6660 C.ar  105  PHE105     -0.0003
    185  CZ        98.5350   47.1720   83.3510 C.ar  105  PHE105     -0.0000
    186  N         97.4560   39.2760   71.0770 N.3   214  ARG214     -0.1245
    187  CA        97.0220   40.3190   72.0180 C.3   214  ARG214      0.1563
    188  C         96.8470   39.7420   73.4210 C.2   214  ARG214      0.2260
    189  O         96.6840   40.4950   74.3840 O.2   214  ARG214     -0.2867
    190  CB        95.6820   40.9260   71.5850 C.3   214  ARG214      0.0307
    191  CG        95.7140   41.8250   70.3420 C.3   214  ARG214      0.0489
    192  CD        95.6590   43.3150   70.6990 C.3   214  ARG214      0.2205
    193  NE        95.8420   44.1670   69.5210 N.pl3 214  ARG214     -0.0865
    194  CZ        97.0230   44.5150   69.0080 C.cat 214  ARG214      0.5346
    195  NH1       98.1620   44.0950   69.5540 N.pl3 214  ARG214      0.1354
    196  NH2       97.0640   45.2940   67.9370 N.pl3 214  ARG214      0.1354
    197  N         99.3090   40.2770   76.6870 N.3   217  PHE217     -0.1241
    198  CA        99.0630   41.3170   77.6880 C.3   217  PHE217      0.1605
    199  C         98.1240   40.8470   78.7990 C.2   217  PHE217      0.2264
    200  O         98.1000   41.4260   79.8820 O.2   217  PHE217     -0.2867
    201  CB        98.4970   42.5920   77.0400 C.3   217  PHE217      0.0534
    202  CG        99.2230   43.0220   75.7930 C.ar  217  PHE217     -0.0203
    203  CD1       98.5650   43.0440   74.5660 C.ar  217  PHE217     -0.0042
    204  CD2      100.5690   43.4110   75.8440 C.ar  217  PHE217     -0.0042
    205  CE1       99.2340   43.4360   73.4020 C.ar  217  PHE217     -0.0003
    206  CE2      101.2490   43.8070   74.6920 C.ar  217  PHE217     -0.0003
    207  CZ       100.5830   43.8190   73.4660 C.ar  217  PHE217     -0.0000
@<TRIPOS>BOND
     1    34    33    1
     2    33    32    1
     3    32    31    1
     4    31    30    1
     5   196   194    1
     6    30    27    1
     7   194   193    2
     8   194   195    1
     9   193   192    1
    10    16    15    2
    11    21    20    1
    12    27    26    1
    13    27    28    1
    14    26    24   am
    15   191   192    1
    16   191   190    1
    17    19    20    1
    18    19    18    1
    19   114   112   ar
    20   114   113   ar
    21    17    18    1
    22    17    14    1
    23    15    14    1
    24    15    22   am
    25    24    23    1
    26    24    25    2
    27    23    22    1
    28   186   187    1
    29    28    29    2
    30    28    35   am
    31   112   110   ar
    32    14    13    1
    33    60    59   ar
    34   190   187    1
    35   113   111   ar
    36    66    63    1
    37   187   188    1
    38    35    36    1
    39   110   111   ar
    40   110   109    1
    41    65    64    2
    42    59    61   ar
    43    59    58    1
    44    41    39    1
    45    64    63    1
    46    64    67   am
    47    63    62    1
    48    36    39    1
    49    36    37    1
    50   205   207   ar
    51   205   203   ar
    52   188   189    2
    53   109   106    1
    54   207   206   ar
    55    62    56   am
    56    58    55    1
    57   101   100    2
    58   120   121    1
    59   120   119    1
    60    39    40    1
    61    67    68    1
    62    68    69    1
    63    12    11    2
    64   121   115    1
    65    37    42   am
    66    37    38    2
    67    42    43    1
    68    56    55    1
    69    56    57    2
    70   106   105    1
    71   106   107    1
    72   153   152    1
    73   203   202   ar
    74   206   204   ar
    75   100   105   am
    76   100    99    1
    77    55    54    1
    78    44    43    1
    79    44    45    2
    80    11    10    1
    81    69    70    2
    82    69    71   am
    83   115   107   am
    84   115   116    1
    85    77    76   ar
    86    90    89    2
    87   119   116    1
    88    78    76   ar
    89   127   126    1
    90   107   108    2
    91    99    98    1
    92    99   102    1
    93    10     9    1
    94   152   154    1
    95   152   149    1
    96   202   204   ar
    97   202   201    1
    98    71    72    1
    99    76    75    1
   100    54    48   am
   101   128   126    1
   102   116   117    1
   103    89    98   am
   104    89    88    1
   105   102   104    1
   106   102   103    1
   107   117   118    2
   108   151   150    2
   109   174   172   am
   110    91    92    1
   111    91    88    1
   112   126   123    1
   113   122   123    1
   114   197   198    1
   115    94    92   ar
   116    94    96   ar
   117   150   149    1
   118     9     3   am
   119   149   148    1
   120    72    75    1
   121    72    73    1
   122   148   143   am
   123    48    49    2
   124    48    47    1
   125   147   145    1
   126   201   198    1
   127    92    93   ar
   128    88    87    1
   129    96    97   ar
   130   173   172    2
   131   123   124    1
   132   172   171    1
   133   198   199    1
   134   163   162    2
   135   142   143    1
   136   142   145    1
   137   142   141    1
   138     3     4    2
   139     3     2    1
   140   143   144    2
   141    47    46    1
   142    47    50    1
   143   145   146    1
   144    93    95   ar
   145   140   139    2
   146    73    74    2
   147    97    95   ar
   148   171   168    1
   149   199   200    2
   150   124   125    2
   151   141   139   am
   152   139   138    1
   153   168   167    1
   154   168   169    1
   155   162   167   am
   156   162   161    1
   157     2     5    1
   158     2     1    1
   159    50    51    1
   160   175   169   am
   161   175   176    1
   162   136   134   am
   163   161   164    1
   164   161   160    1
   165   164   165    1
   166   177   176    1
   167   177   178    2
   168   169   170    2
   169     5     6    1
   170    53    51    1
   171   138   137    1
   172   179   176    1
   173   179   180    1
   174   135   134    2
   175    51    52    1
   176   134   133    1
   177   181   180   ar
   178   181   183   ar
   179   165   166    1
   180   158   157    2
   181     8     6    1
   182   180   182   ar
   183     6     7    1
   184   160   157   am
   185   160   166    1
   186   157   156    1
   187   183   185   ar
   188   133   130    1
   189    79    80    1
   190    86    84    1
   191   129   130    1
   192    84    85    1
   193    84    83    1
   194   182   184   ar
   195   130   131    1
   196    80    83    1
   197    80    81    1
   198   156   159    1
   199   156   155    1
   200   185   184   ar
   201    81    82    2
   202   131   132    2
