@<TRIPOS>MOLECULE
tmp/1yliB00.pdb
 89 88 0 0 0
SMALL
GASTEIGER

@<TRIPOS>ATOM
      1  N        -17.1670  -12.3990   -1.4210 N.3    30  ILE30      -0.1231
      2  CA       -16.9700  -11.4580   -0.3200 C.3    30  ILE30       0.1692
      3  C        -17.0680  -12.2590    0.9780 C.2    30  ILE30       0.2592
      4  O        -18.0920  -12.8940    1.2460 O.2    30  ILE30      -0.2718
      5  CB       -18.0320  -10.3370   -0.3570 C.3    30  ILE30       0.0266
      6  CG1      -17.8390   -9.4610   -1.6210 C.3    30  ILE30       0.0019
      7  CG2      -18.0500   -9.5180    0.9660 C.3    30  ILE30       0.0020
      8  CD1      -16.4250   -8.7950   -1.7420 C.3    30  ILE30       0.0001
      9  N        -16.0090  -12.2390    1.7840 N.am   31  PHE31      -0.1962
     10  CA       -15.9040  -13.1310    2.9520 C.3    31  PHE31       0.1771
     11  C        -16.0260  -12.3920    4.2820 C.2    31  PHE31       0.2620
     12  O        -15.8610  -11.1680    4.3260 O.2    31  PHE31      -0.2715
     13  CB       -14.5960  -13.9750    2.8580 C.3    31  PHE31       0.0574
     14  CG       -13.3190  -13.1640    2.9730 C.ar   31  PHE31      -0.0200
     15  CD1      -12.8750  -12.3710    1.9240 C.ar   31  PHE31      -0.0042
     16  CD2      -12.5510  -13.2160    4.1560 C.ar   31  PHE31      -0.0042
     17  CE1      -11.6810  -11.6240    2.0280 C.ar   31  PHE31      -0.0003
     18  CE2      -11.3460  -12.4850    4.2800 C.ar   31  PHE31      -0.0003
     19  CZ       -10.9240  -11.6640    3.2040 C.ar   31  PHE31      -0.0000
     20  N        -16.3530  -13.1380    5.3490 N.am   32  GLY32      -0.1954
     21  CA       -16.5550  -12.5860    6.6990 C.3    32  GLY32       0.1869
     22  C        -15.4470  -11.6470    7.1470 C.2    32  GLY32       0.2309
     23  O        -15.7110  -10.5750    7.6710 O.2    32  GLY32      -0.2863
     24  N        -15.6300   -8.0740    5.8930 N.3    35  ILE35      -0.1245
     25  CA       -16.6570   -7.3220    6.6060 C.3    35  ILE35       0.1561
     26  C        -16.1730   -6.9400    7.9990 C.2    35  ILE35       0.2260
     27  O        -16.3970   -5.7990    8.4630 O.2    35  ILE35      -0.2867
     28  CB       -18.0010   -8.1310    6.6960 C.3    35  ILE35       0.0252
     29  CG1      -18.5400   -8.3630    5.2930 C.3    35  ILE35       0.0019
     30  CG2      -19.0930   -7.3990    7.5530 C.3    35  ILE35       0.0019
     31  CD1      -18.8910   -7.0630    4.5510 C.3    35  ILE35       0.0001
     32  N        -22.9920  -12.8820   13.8470 N.3    64  ASN64      -0.1225
     33  CA       -23.5180  -13.8640   12.8340 C.3    64  ASN64       0.1785
     34  C        -23.6280  -13.0950   11.5290 C.2    64  ASN64       0.2597
     35  O        -23.8440  -11.8860   11.5510 O.2    64  ASN64      -0.2718
     36  CB       -24.9400  -14.3880   13.1370 C.3    64  ASN64       0.1169
     37  CG       -25.0320  -15.1990   14.4160 C.2    64  ASN64       0.2627
     38  OD1      -24.3940  -16.2500   14.5500 O.2    64  ASN64      -0.2716
     39  ND2      -25.8860  -14.7550   15.3470 N.am   64  ASN64      -0.0877
     40  N        -23.4750  -13.7790   10.3930 N.am   65  PHE65      -0.1962
     41  CA       -23.6230  -13.1330    9.0640 C.3    65  PHE65       0.1771
     42  C        -24.8830  -13.7790    8.4600 C.2    65  PHE65       0.2619
     43  O        -24.8840  -14.9730    8.1420 O.2    65  PHE65      -0.2715
     44  CB       -22.3570  -13.3530    8.1760 C.3    65  PHE65       0.0574
     45  CG       -21.0770  -12.8310    8.8060 C.ar   65  PHE65      -0.0200
     46  CD1      -20.7130  -11.5080    8.6630 C.ar   65  PHE65      -0.0042
     47  CD2      -20.3050  -13.6420    9.6160 C.ar   65  PHE65      -0.0042
     48  CE1      -19.5570  -11.0110    9.2570 C.ar   65  PHE65      -0.0003
     49  CE2      -19.1570  -13.1490   10.2520 C.ar   65  PHE65      -0.0003
     50  CZ       -18.8020  -11.8390   10.0860 C.ar   65  PHE65      -0.0000
     51  N        -25.9450  -12.9980    8.2980 N.am   66  ILE66      -0.1963
     52  CA       -27.2140  -13.5990    7.9070 C.3    66  ILE66       0.1727
     53  C        -27.4270  -13.7850    6.4030 C.2    66  ILE66       0.2616
     54  O        -28.1810  -14.6690    6.0020 O.2    66  ILE66      -0.2715
     55  CB       -28.4390  -12.8760    8.5070 C.3    66  ILE66       0.0290
     56  CG1      -28.5510  -11.4330    7.9870 C.3    66  ILE66       0.0022
     57  CG2      -28.4380  -12.9660   10.0350 C.3    66  ILE66       0.0023
     58  CD1      -30.0390  -10.9360    7.8910 C.3    66  ILE66       0.0001
     59  N        -26.7630  -12.9580    5.5880 N.am   67  LYS67      -0.1964
     60  CA       -26.9750  -12.9510    4.1510 C.3    67  LYS67       0.1713
     61  C        -25.6520  -12.6220    3.4570 C.2    67  LYS67       0.2458
     62  O        -24.8690  -11.8460    3.9970 O.2    67  LYS67      -0.2730
     63  CB       -28.0490  -11.9070    3.7710 C.3    67  LYS67       0.0311
     64  CG       -29.5040  -12.3920    3.9800 C.3    67  LYS67       0.0038
     65  CD       -30.5590  -11.3300    3.5760 C.3    67  LYS67       0.0206
     66  CE       -30.6310  -11.1350    2.0110 C.3    67  LYS67       0.1093
     67  NZ       -31.9400  -10.5220    1.4870 N.3    67  LYS67      -0.1314
     68  N        -25.3980  -13.2350    2.2760 N.am   68  PRO68      -0.2716
     69  CA       -24.1490  -12.9870    1.5510 C.3    68  PRO68       0.1536
     70  C        -24.1050  -11.5980    0.9010 C.2    68  PRO68       0.2598
     71  O        -25.1370  -10.9300    0.8150 O.2    68  PRO68      -0.2715
     72  CB       -24.1430  -14.0830    0.4930 C.3    68  PRO68       0.0310
     73  CG       -25.6010  -14.4620    0.3110 C.3    68  PRO68       0.0237
     74  CD       -26.2540  -14.2310    1.5940 C.3    68  PRO68       0.0939
     75  N        -22.9160  -11.1570    0.4880 N.am   69  ILE69      -0.1978
     76  CA       -22.7680   -9.8970   -0.2280 C.3    69  ILE69       0.1596
     77  C        -22.0960  -10.2590   -1.5550 C.2    69  ILE69       0.2287
     78  O        -21.2240  -11.1560   -1.5720 O.2    69  ILE69      -0.2864
     79  CB       -21.8930   -8.9510    0.5780 C.3    69  ILE69       0.0276
     80  CG1      -22.5140   -8.7510    1.9810 C.3    69  ILE69       0.0022
     81  CG2      -21.7010   -7.5930   -0.1480 C.3    69  ILE69       0.0022
     82  CD1      -21.5490   -8.0240    2.9630 C.3    69  ILE69       0.0001
     83  N        -26.5420   -7.2100    7.2320 N.3   111  VAL111     -0.1245
     84  CA       -25.7180   -8.4180    7.1980 C.3   111  VAL111      0.1561
     85  C        -25.3120   -8.8760    8.5840 C.2   111  VAL111      0.2260
     86  O        -25.4630  -10.0590    8.9350 O.2   111  VAL111     -0.2867
     87  CB       -24.4460   -8.1490    6.3680 C.3   111  VAL111      0.0252
     88  CG1      -23.4390   -9.2780    6.4590 C.3   111  VAL111      0.0019
     89  CG2      -24.8780   -7.9890    4.9550 C.3   111  VAL111      0.0019
@<TRIPOS>BOND
     1     8     6    1
     2     6     5    1
     3    78    77    2
     4    77    76    1
     5     1     2    1
     6     5     2    1
     7     5     7    1
     8     2     3    1
     9    76    75    1
    10    76    79    1
    11    81    79    1
    12    73    72    1
    13    73    74    1
    14    75    70   am
    15    72    69    1
    16    79    80    1
    17    71    70    2
    18    70    69    1
    19     3     4    2
    20     3     9   am
    21    67    66    1
    22    69    68    1
    23    74    68    1
    24     9    10    1
    25    15    17   ar
    26    15    14   ar
    27    80    82    1
    28    66    65    1
    29    17    19   ar
    30    68    61   am
    31    13    10    1
    32    13    14    1
    33    10    11    1
    34    14    16   ar
    35    19    18   ar
    36    61    62    2
    37    61    60    1
    38    65    64    1
    39    63    64    1
    40    63    60    1
    41    60    59    1
    42    16    18   ar
    43    11    12    2
    44    11    20   am
    45    31    29    1
    46    89    87    1
    47    29    28    1
    48    20    21    1
    49    59    53   am
    50    24    25    1
    51    54    53    2
    52    87    88    1
    53    87    84    1
    54    53    52    1
    55    25    28    1
    56    25    26    1
    57    28    30    1
    58    21    22    1
    59    22    23    2
    60    84    83    1
    61    84    85    1
    62    58    56    1
    63    52    51    1
    64    52    55    1
    65    56    55    1
    66    26    27    2
    67    43    42    2
    68    44    45    1
    69    44    41    1
    70    51    42   am
    71    42    41    1
    72    55    57    1
    73    85    86    2
    74    46    45   ar
    75    46    48   ar
    76    45    47   ar
    77    41    40    1
    78    48    50   ar
    79    47    49   ar
    80    50    49   ar
    81    40    34   am
    82    34    35    2
    83    34    33    1
    84    33    36    1
    85    33    32    1
    86    36    37    1
    87    37    38    2
    88    37    39   am
