@<TRIPOS>MOLECULE
tmp/1yliB01.pdb
 113 105 0 0 0
SMALL
GASTEIGER

@<TRIPOS>ATOM
      1  N         -6.8440    1.7940   19.8410 N.3    56  VAL56      -0.1231
      2  CA        -6.6290    0.4130   19.3890 C.3    56  VAL56       0.1692
      3  C         -7.8200   -0.4490   19.7560 C.2    56  VAL56       0.2593
      4  O         -8.5650   -0.1440   20.7030 O.2    56  VAL56      -0.2718
      5  CB        -5.3420   -0.2230   20.0030 C.3    56  VAL56       0.0266
      6  CG1       -4.0840    0.5160   19.5050 C.3    56  VAL56       0.0020
      7  CG2       -5.3890   -0.2120   21.5400 C.3    56  VAL56       0.0020
      8  N         -7.9920   -1.5390   19.0170 N.am   57  THR57      -0.1939
      9  CA        -9.0350   -2.5170   19.3170 C.3    57  THR57       0.2028
     10  C         -8.6070   -3.5020   20.3830 C.2    57  THR57       0.2642
     11  O         -7.5790   -4.1770   20.2130 O.2    57  THR57      -0.2714
     12  CB        -9.3810   -3.3200   18.0410 C.3    57  THR57       0.1808
     13  OG1       -9.7210   -2.3950   17.0100 O.3    57  THR57      -0.2208
     14  CG2      -10.5770   -4.2510   18.2980 C.3    57  THR57       0.0379
     15  N         -9.3880   -3.6210   21.4690 N.am   58  VAL58      -0.1963
     16  CA        -9.1040   -4.6810   22.4580 C.3    58  VAL58       0.1727
     17  C        -10.0970   -5.8600   22.4550 C.2    58  VAL58       0.2616
     18  O         -9.7520   -6.9380   22.8940 O.2    58  VAL58      -0.2715
     19  CB        -8.9450   -4.1710   23.9250 C.3    58  VAL58       0.0290
     20  CG1       -7.7680   -3.2350   23.9980 C.3    58  VAL58       0.0023
     21  CG2      -10.2780   -3.4920   24.4520 C.3    58  VAL58       0.0023
     22  N        -11.3310   -5.6510   22.0140 N.am   59  ALA59      -0.1977
     23  CA       -12.2870   -6.7440   22.0460 C.3    59  ALA59       0.1597
     24  C        -13.3010   -6.5720   20.9460 C.2    59  ALA59       0.2287
     25  O        -13.5080   -5.4700   20.4580 O.2    59  ALA59      -0.2864
     26  CB       -12.9590   -6.8390   23.4160 C.3    59  ALA59       0.0319
     27  N        -20.8400    3.2470   25.2630 N.3    83  LYS83      -0.1245
     28  CA       -20.2220    3.4730   26.5760 C.3    83  LYS83       0.1561
     29  C        -18.8900    4.1730   26.3880 C.2    83  LYS83       0.2260
     30  O        -18.1250    3.8310   25.4770 O.2    83  LYS83      -0.2867
     31  CB       -19.9730    2.1390   27.2600 C.3    83  LYS83       0.0271
     32  CG       -19.5820    2.2160   28.7150 C.3    83  LYS83       0.0035
     33  CD       -18.5290    1.1880   29.0140 C.3    83  LYS83       0.0206
     34  CE       -18.2530    1.1390   30.5250 C.3    83  LYS83       0.1093
     35  NZ       -17.4250   -0.0720   30.8440 N.3    83  LYS83      -0.1314
     36  N        -15.6470    4.9290   28.9840 N.3    85  GLY85      -0.1210
     37  CA       -15.0930    4.7580   30.3210 C.3    85  GLY85       0.1956
     38  C        -13.9490    5.7440   30.5110 C.2    85  GLY85       0.2612
     39  O        -14.0110    6.8620   30.0110 O.2    85  GLY85      -0.2717
     40  N        -12.8910    5.3340   31.2030 N.am   86  ARG86      -0.1965
     41  CA       -11.7250    6.2090   31.4080 C.3    86  ARG86       0.1729
     42  C        -10.9410    6.3150   30.1110 C.2    86  ARG86       0.2617
     43  O        -10.6980    7.4080   29.6010 O.2    86  ARG86      -0.2715
     44  CB       -10.8140    5.6750   32.5250 C.3    86  ARG86       0.0348
     45  CG        -9.8330    6.7450   33.0370 C.3    86  ARG86       0.0492
     46  CD        -8.7380    6.2020   33.9850 C.3    86  ARG86       0.2205
     47  NE        -8.1550    4.9530   33.4760 N.pl3  86  ARG86      -0.0865
     48  CZ        -7.2170    4.8490   32.5290 C.cat  86  ARG86       0.5346
     49  NH1       -6.7070    5.9300   31.9260 N.pl3  86  ARG86       0.1354
     50  NH2       -6.7880    3.6400   32.1790 N.pl3  86  ARG86       0.1354
     51  N        -10.5310    5.1570   29.5970 N.am   87  SER87      -0.1936
     52  CA        -9.8370    5.0970   28.3140 C.3    87  SER87       0.2055
     53  C        -10.5480    4.2240   27.2840 C.2    87  SER87       0.2643
     54  O        -10.1310    4.1730   26.1430 O.2    87  SER87      -0.2714
     55  CB        -8.4050    4.6150   28.5080 C.3    87  SER87       0.2130
     56  OG        -8.3650    3.2610   28.9090 O.3    87  SER87      -0.2179
     57  N        -11.6000    3.5260   27.6890 N.am   88  SER88      -0.1949
     58  CA       -12.2770    2.6120   26.7720 C.3    88  SER88       0.1924
     59  C        -13.5270    3.2480   26.1400 C.2    88  SER88       0.2314
     60  O        -14.1820    4.1160   26.7350 O.2    88  SER88      -0.2863
     61  CB       -12.6410    1.3060   27.4830 C.3    88  SER88       0.2116
     62  OG       -13.7580    1.5450   28.3240 O.3    88  SER88      -0.2180
     63  N        -16.9740    1.8900   23.7350 N.3    90  LYS90      -0.1245
     64  CA       -17.6770    0.7860   23.0990 C.3    90  LYS90       0.1561
     65  C        -18.4800    1.3590   21.9460 C.2    90  LYS90       0.2260
     66  O        -19.2630    2.3050   22.1510 O.2    90  LYS90      -0.2867
     67  CB       -18.5630    0.0600   24.1090 C.3    90  LYS90       0.0271
     68  CG       -17.7610   -0.8250   25.0340 C.3    90  LYS90       0.0035
     69  CD       -18.6470   -1.5980   25.9590 C.3    90  LYS90       0.0206
     70  CE       -17.8530   -2.4830   26.8960 C.3    90  LYS90       0.1093
     71  NZ       -17.1710   -3.5720   26.1300 N.3    90  LYS90      -0.1314
     72  N        -14.8540   -2.9490   21.2830 N.3   117  THR117     -0.1218
     73  CA       -14.2520   -2.1830   22.3590 C.3   117  THR117      0.1862
     74  C        -12.8870   -1.6610   21.9520 C.2   117  THR117      0.2287
     75  O        -11.9810   -2.4510   21.6220 O.2   117  THR117     -0.2866
     76  CB       -14.1150   -2.9910   23.6360 C.3   117  THR117      0.1770
     77  OG1      -15.3950   -3.5400   23.9370 O.3   117  THR117     -0.2211
     78  CG2      -13.6920   -2.0710   24.7970 C.3   117  THR117      0.0375
     79  N         -9.6340    1.1910   22.8840 N.3   119  VAL119     -0.1245
     80  CA        -8.9530    1.8200   24.0150 C.3   119  VAL119      0.1561
     81  C         -8.1170    2.9750   23.4670 C.2   119  VAL119      0.2260
     82  O         -7.3940    2.8080   22.4840 O.2   119  VAL119     -0.2867
     83  CB        -8.0520    0.8320   24.7900 C.3   119  VAL119      0.0252
     84  CG1       -7.2380    1.5690   25.8700 C.3   119  VAL119      0.0019
     85  CG2       -8.8770   -0.2540   25.4770 C.3   119  VAL119      0.0019
     86  N         -5.0440    5.1810   23.3740 N.3   121  VAL121     -0.1245
     87  CA        -3.6480    4.9140   23.7370 C.3   121  VAL121      0.1561
     88  C         -2.7610    6.0780   23.3710 C.2   121  VAL121      0.2260
     89  O         -3.1490    6.9060   22.5560 O.2   121  VAL121     -0.2867
     90  CB        -3.0910    3.6490   23.0590 C.3   121  VAL121      0.0252
     91  CG1       -3.6730    2.3950   23.7100 C.3   121  VAL121      0.0019
     92  CG2       -3.3350    3.6610   21.5530 C.3   121  VAL121      0.0019
     93  N          1.5480    2.8350   22.9600 N.3   125  GLY125     -0.1210
     94  CA         0.4960    1.8310   23.0710 C.3   125  GLY125      0.1956
     95  C         -0.0950    1.7080   24.4640 C.2   125  GLY125      0.2612
     96  O         -0.8830    0.7910   24.7230 O.2   125  GLY125     -0.2717
     97  N          0.2850    2.6260   25.3550 N.am  126  ARG126     -0.1965
     98  CA        -0.1940    2.6520   26.7440 C.3   126  ARG126      0.1729
     99  C         -1.5200    3.3820   26.8380 C.2   126  ARG126      0.2616
    100  O         -1.6870    4.4150   26.1920 O.2   126  ARG126     -0.2715
    101  CB         0.8300    3.3480   27.6440 C.3   126  ARG126      0.0348
    102  CG         2.0600    2.4960   27.9360 C.3   126  ARG126      0.0492
    103  CD         3.2350    3.3400   28.4150 C.3   126  ARG126      0.2205
    104  NE         4.4820    2.5720   28.3200 N.pl3 126  ARG126     -0.0865
    105  CZ         5.0770    1.9460   29.3400 C.cat 126  ARG126      0.5346
    106  NH1        4.5650    1.9960   30.5720 N.pl3 126  ARG126      0.1354
    107  NH2        6.2090    1.2720   29.1290 N.pl3 126  ARG126      0.1354
    108  N         -2.4550    2.8760   27.6500 N.am  127  SER127     -0.1950
    109  CA        -3.7850    3.4990   27.7240 C.3   127  SER127      0.1924
    110  C         -3.7090    4.9390   28.2250 C.2   127  SER127      0.2314
    111  O         -2.8690    5.2610   29.0610 O.2   127  SER127     -0.2863
    112  CB        -4.8020    2.6520   28.5240 C.3   127  SER127      0.2116
    113  OG        -4.5530    2.6730   29.9160 O.3   127  SER127     -0.2180
@<TRIPOS>BOND
     1    13    12    1
     2    12    14    1
     3    12     9    1
     4     8     9    1
     5     8     3   am
     6     9    10    1
     7     2     3    1
     8     2     1    1
     9     2     5    1
    10     6     5    1
    11     3     4    2
    12     5     7    1
    13    11    10    2
    14    10    15   am
    15    25    24    2
    16    24    23    1
    17    72    73    1
    18    15    16    1
    19    92    90    1
    20    75    74    2
    21    65    66    2
    22    65    64    1
    23    74    73    1
    24    22    23    1
    25    22    17   am
    26    23    26    1
    27    73    76    1
    28    17    16    1
    29    17    18    2
    30    16    19    1
    31    82    81    2
    32    89    88    2
    33    79    80    1
    34    93    94    1
    35    90    91    1
    36    90    87    1
    37    94    95    1
    38    64    63    1
    39    64    67    1
    40    88    87    1
    41    86    87    1
    42    81    80    1
    43    76    77    1
    44    76    78    1
    45    19    20    1
    46    19    21    1
    47    80    83    1
    48    67    68    1
    49    95    96    2
    50    95    97   am
    51    83    85    1
    52    83    84    1
    53    68    69    1
    54    27    28    1
    55    97    98    1
    56    30    29    2
    57    69    70    1
    58    71    70    1
    59    59    60    2
    60    59    58    1
    61    54    53    2
    62   100    99    2
    63    29    28    1
    64    28    31    1
    65    98    99    1
    66    98   101    1
    67    58    61    1
    68    58    57    1
    69    99   108   am
    70    31    32    1
    71    53    57   am
    72    53    52    1
    73    61    62    1
    74   101   102    1
    75   108   109    1
    76   109   110    1
    77   109   112    1
    78   102   103    1
    79   110   111    2
    80    52    55    1
    81    52    51    1
    82   104   103    1
    83   104   105    2
    84    55    56    1
    85   112   113    1
    86    32    33    1
    87    36    37    1
    88    33    34    1
    89   107   105    1
    90   105   106    1
    91    51    42   am
    92    43    42    2
    93    39    38    2
    94    42    41    1
    95    37    38    1
    96    38    40   am
    97    34    35    1
    98    40    41    1
    99    41    44    1
   100    49    48    1
   101    50    48    1
   102    44    45    1
   103    48    47    2
   104    45    46    1
   105    47    46    1
