@<TRIPOS>MOLECULE
tmp/1ylpA00.pdb
 85 79 0 0 0
SMALL
GASTEIGER

@<TRIPOS>ATOM
      1  N         32.3630   81.6010   -4.2530 N.3    75  ALA75      -0.1231
      2  CA        31.3870   80.5650   -4.5440 C.3    75  ALA75       0.1694
      3  C         31.7970   79.1580   -4.1350 C.2    75  ALA75       0.2592
      4  O         30.9500   78.2630   -4.1580 O.2    75  ALA75      -0.2718
      5  CB        31.1010   80.5130   -6.0410 C.3    75  ALA75       0.0304
      6  N         33.0600   78.9650   -3.7960 N.am   76  ASP76      -0.1960
      7  CA        33.5540   77.6690   -3.3580 C.3    76  ASP76       0.1840
      8  C         33.1600   77.3580   -1.9180 C.2    76  ASP76       0.2622
      9  O         33.2160   76.2070   -1.4990 O.2    76  ASP76      -0.2715
     10  CB        35.0740   77.6320   -3.4800 C.3    76  ASP76       0.1450
     11  CG        35.5460   77.6340   -4.9150 C.2    76  ASP76       0.3671
     12  OD1       34.7990   77.1120   -5.7750 O.co2  76  ASP76      -0.2456
     13  OD2       36.6530   78.1410   -5.1790 O.co2  76  ASP76      -0.2456
     14  N         32.8050   78.3810   -1.1400 N.am   77  LEU77      -0.1963
     15  CA        32.6470   78.1370    0.2880 C.3    77  LEU77       0.1728
     16  C         31.3290   77.4200    0.5710 C.2    77  LEU77       0.2616
     17  O         30.2750   77.6830   -0.0200 O.2    77  LEU77      -0.2715
     18  CB        32.7190   79.4400    1.0780 C.3    77  LEU77       0.0311
     19  CG        33.9870   80.2870    0.9960 C.3    77  LEU77       0.0022
     20  CD1       34.0580   81.2460    2.1770 C.3    77  LEU77       0.0001
     21  CD2       35.2370   79.4400    0.9200 C.3    77  LEU77       0.0001
     22  N         31.3910   76.4950    1.5160 N.am   78  VAL78      -0.1977
     23  CA        30.2150   75.7450    1.9570 C.3    78  VAL78       0.1596
     24  C         29.9290   76.0890    3.4110 C.2    78  VAL78       0.2287
     25  O         29.9260   77.2710    3.7670 O.2    78  VAL78      -0.2864
     26  CB        30.3900   74.2500    1.6550 C.3    78  VAL78       0.0276
     27  CG1       30.3290   74.0370    0.1290 C.3    78  VAL78       0.0022
     28  CG2       31.6810   73.6550    2.1790 C.3    78  VAL78       0.0022
     29  N         35.3000   73.2380    2.7220 N.3   108  THR108     -0.1218
     30  CA        35.7120   73.7250    1.4060 C.3   108  THR108      0.1862
     31  C         36.9860   73.0150    0.9680 C.2   108  THR108      0.2287
     32  O         37.1160   72.6030   -0.1770 O.2   108  THR108     -0.2866
     33  CB        35.9260   75.2450    1.4230 C.3   108  THR108      0.1770
     34  OG1       34.6710   75.8980    1.7020 O.3   108  THR108     -0.2211
     35  CG2       36.4080   75.7450    0.0680 C.3   108  THR108      0.0375
     36  N         36.2100   69.6860   -0.4050 N.3   111  ASN111     -0.1225
     37  CA        35.6250   69.7160   -1.7510 C.3   111  ASN111      0.1785
     38  C         36.6780   69.9850   -2.8210 C.2   111  ASN111      0.2597
     39  O         36.5540   69.4620   -3.9340 O.2   111  ASN111     -0.2718
     40  CB        34.5240   70.7560   -1.8050 C.3   111  ASN111      0.1169
     41  CG        33.1890   70.2120   -1.3210 C.2   111  ASN111      0.2627
     42  OD1       33.0530   69.0320   -1.0280 O.2   111  ASN111     -0.2716
     43  ND2       32.1930   71.0830   -1.2200 N.am  111  ASN111     -0.0877
     44  N         37.7170   70.7510   -2.4900 N.am  112  LYS112     -0.1980
     45  CA        38.8070   70.9290   -3.4600 C.3   112  LYS112      0.1596
     46  C         39.6280   69.6520   -3.6100 C.2   112  LYS112      0.2287
     47  O         40.1060   69.3450   -4.7050 O.2   112  LYS112     -0.2864
     48  CB        39.7040   72.0910   -3.0430 C.3   112  LYS112      0.0298
     49  CG        39.0410   73.4500   -3.1170 C.3   112  LYS112      0.0038
     50  CD        38.7380   73.8420   -4.5530 C.3   112  LYS112      0.0206
     51  CE        38.1980   75.2540   -4.6700 C.3   112  LYS112      0.1093
     52  NZ        37.8680   75.6630   -6.0660 N.3   112  LYS112     -0.1314
     53  N         38.3550   66.5720   -3.3070 N.3   114  ILE114     -0.1231
     54  CA        37.4700   65.7500   -4.1310 C.3   114  ILE114      0.1692
     55  C         37.5540   66.1630   -5.5940 C.2   114  ILE114      0.2591
     56  O         37.6620   65.2990   -6.4690 O.2   114  ILE114     -0.2718
     57  CB        36.0240   65.8220   -3.6030 C.3   114  ILE114      0.0266
     58  CG1       35.9100   65.2640   -2.1850 C.3   114  ILE114      0.0019
     59  CG2       35.0630   65.1130   -4.5380 C.3   114  ILE114      0.0020
     60  CD1       34.5500   65.4390   -1.5490 C.3   114  ILE114      0.0001
     61  N         37.5420   67.4670   -5.8790 N.am  115  ALA115     -0.1980
     62  CA        37.6510   67.9370   -7.2660 C.3   115  ALA115      0.1597
     63  C         38.9730   67.5130   -7.8900 C.2   115  ALA115      0.2287
     64  O         39.0150   67.1190   -9.0620 O.2   115  ALA115     -0.2864
     65  CB        37.4600   69.4410   -7.3400 C.3   115  ALA115      0.0319
     66  N         36.0240   63.9220   -8.4650 N.3   119  GLY119     -0.1225
     67  CA        34.7080   63.6520   -7.8920 C.3   119  GLY119      0.1811
     68  C         34.7540   62.6000   -6.8070 C.2   119  GLY119      0.2280
     69  O         35.7910   61.9590   -6.6010 O.2   119  GLY119     -0.2866
     70  N         29.6080   65.1910   -2.0270 N.3   140  THR140     -0.1203
     71  CA        30.5200   66.2360   -1.6090 C.3   140  THR140      0.1994
     72  C         30.0520   66.8490   -0.2970 C.2   140  THR140      0.2617
     73  O         29.0310   66.4270    0.2590 O.2   140  THR140     -0.2717
     74  CB        30.6280   67.3330   -2.6870 C.3   140  THR140      0.1784
     75  OG1       29.3200   67.8770   -2.8910 O.3   140  THR140     -0.2211
     76  CG2       31.1020   66.7720   -4.0170 C.3   140  THR140      0.0376
     77  N         30.7930   67.8330    0.1960 N.am  141  GLU141     -0.1979
     78  CA        30.3710   68.6260    1.3310 C.3   141  GLU141      0.1602
     79  C         29.3520   69.6880    0.9480 C.2   141  GLU141      0.2287
     80  O         29.5240   70.3360   -0.0960 O.2   141  GLU141     -0.2864
     81  CB        31.5700   69.3370    1.9780 C.3   141  GLU141      0.0415
     82  CG        32.6260   68.3460    2.4180 C.3   141  GLU141      0.1163
     83  CD        32.2790   67.7080    3.7460 C.2   141  GLU141      0.3649
     84  OE1       33.1130   66.9190    4.2410 O.co2 141  GLU141     -0.2457
     85  OE2       31.1960   68.0020    4.2900 O.co2 141  GLU141     -0.2457
@<TRIPOS>BOND
     1    64    63    2
     2    66    67    1
     3    67    68    1
     4    63    62    1
     5    65    62    1
     6    62    61    1
     7    68    69    2
     8    56    55    2
     9    52    51    1
    10     5     2    1
    11    61    55   am
    12    12    11   ar
    13    55    54    1
    14    13    11   ar
    15    11    10    1
    16    47    46    2
    17    51    50    1
    18    50    49    1
    19     2     1    1
    20     2     3    1
    21    59    57    1
    22     4     3    2
    23     3     6   am
    24    54    57    1
    25    54    53    1
    26    76    74    1
    27    39    38    2
    28     6     7    1
    29    46    45    1
    30    57    58    1
    31    10     7    1
    32    45    48    1
    33    45    44    1
    34     7     8    1
    35    49    48    1
    36    75    74    1
    37    38    44   am
    38    38    37    1
    39    74    71    1
    40    58    60    1
    41    70    71    1
    42     8     9    2
    43     8    14   am
    44    40    37    1
    45    40    41    1
    46    37    36    1
    47    71    72    1
    48    41    43   am
    49    41    42    2
    50    14    15    1
    51    72    77   am
    52    72    73    2
    53    32    31    2
    54    80    79    2
    55    17    16    2
    56    35    33    1
    57    27    26    1
    58    77    78    1
    59    15    16    1
    60    15    18    1
    61    16    22   am
    62    21    19    1
    63    79    78    1
    64    31    30    1
    65    19    18    1
    66    19    20    1
    67    78    81    1
    68    30    33    1
    69    30    29    1
    70    33    34    1
    71    22    23    1
    72    26    23    1
    73    26    28    1
    74    23    24    1
    75    81    82    1
    76    82    83    1
    77    24    25    2
    78    83    84   ar
    79    83    85   ar
