@<TRIPOS>MOLECULE
tmp/1ylzA00.pdb
 91 85 0 0 0
SMALL
GASTEIGER

@<TRIPOS>ATOM
      1  N         42.9590   58.1860    8.2300 N.3    45  SER45      -0.1217
      2  CA        42.5380   57.3690    7.0980 C.3    45  SER45       0.1889
      3  C         41.1300   57.6580    6.6070 C.2    45  SER45       0.2288
      4  O         40.7710   57.1200    5.5510 O.2    45  SER45      -0.2866
      5  CB        42.6620   55.8760    7.4360 C.3    45  SER45       0.2089
      6  OG        44.0230   55.5140    7.6220 O.3    45  SER45      -0.2183
      7  N         40.8750   58.6320    3.0310 N.3    48  LYS48      -0.1245
      8  CA        40.9790   57.6690    1.9360 C.3    48  LYS48       0.1561
      9  C         39.7000   57.6050    1.1150 C.2    48  LYS48       0.2260
     10  O         39.7320   57.2390   -0.0600 O.2    48  LYS48      -0.2867
     11  CB        41.3610   56.2880    2.4840 C.3    48  LYS48       0.0271
     12  CG        42.7670   56.2710    3.0670 C.3    48  LYS48       0.0035
     13  CD        43.0910   54.9750    3.7860 C.3    48  LYS48       0.0206
     14  CE        44.4440   55.0650    4.4710 C.3    48  LYS48       0.1093
     15  NZ        44.8370   53.7860    5.1150 N.3    48  LYS48      -0.1314
     16  N         54.0220   52.1400    7.0260 N.3    79  ASN79      -0.1225
     17  CA        53.9050   51.6150    8.3790 C.3    79  ASN79       0.1785
     18  C         52.8810   50.4970    8.5070 C.2    79  ASN79       0.2597
     19  O         52.9730   49.6850    9.4300 O.2    79  ASN79      -0.2718
     20  CB        53.5360   52.7400    9.3550 C.3    79  ASN79       0.1169
     21  CG        52.1890   53.3560    9.0240 C.2    79  ASN79       0.2627
     22  OD1       51.9390   53.6930    7.8680 O.2    79  ASN79      -0.2716
     23  ND2       51.3340   53.4960   10.0300 N.am   79  ASN79      -0.0877
     24  N         51.9160   50.4750    7.6000 N.am   80  TYR80      -0.1976
     25  CA        50.8100   49.5240    7.6660 C.3    80  TYR80       0.1639
     26  C         50.3370   49.2220    6.2510 C.2    80  TYR80       0.2290
     27  O         49.7400   50.0560    5.5790 O.2    80  TYR80      -0.2864
     28  CB        49.6660   50.0590    8.5280 C.3    80  TYR80       0.0560
     29  CG        48.5830   49.0200    8.7180 C.ar   80  TYR80      -0.0198
     30  CD1       47.3120   49.2070    8.1980 C.ar   80  TYR80      -0.0009
     31  CD2       48.8570   47.8500    9.4190 C.ar   80  TYR80      -0.0009
     32  CE1       46.3290   48.2500    8.3750 C.ar   80  TYR80       0.0417
     33  CE2       47.8750   46.8900    9.5980 C.ar   80  TYR80       0.0417
     34  CZ        46.6190   47.0990    9.0730 C.ar   80  TYR80       0.1957
     35  OH        45.6440   46.1460    9.2510 O.3    80  TYR80      -0.2866
     36  N         42.3490   49.6970    5.2140 N.3   105  SER105     -0.1217
     37  CA        43.1210   50.8900    5.5380 C.3   105  SER105      0.1889
     38  C         44.6030   50.6940    5.2380 C.2   105  SER105      0.2288
     39  O         45.4690   51.1420    5.9850 O.2   105  SER105     -0.2866
     40  CB        42.9100   51.3160    6.9980 C.3   105  SER105      0.2089
     41  OG        42.9280   52.7370    7.0720 O.3   105  SER105     -0.2183
     42  N         48.0100   51.6170    3.8850 N.3   107  ASN107     -0.1240
     43  CA        48.5770   52.9430    3.6440 C.3   107  ASN107      0.1653
     44  C         49.3940   53.0170    2.3660 C.2   107  ASN107      0.2266
     45  O         49.4970   54.0760    1.7390 O.2   107  ASN107     -0.2867
     46  CB        49.4370   53.3720    4.8400 C.3   107  ASN107      0.1155
     47  CG        48.5970   53.9490    5.9620 C.2   107  ASN107      0.2627
     48  OD1       47.4400   54.3240    5.7750 O.2   107  ASN107     -0.2716
     49  ND2       49.1850   54.0350    7.1500 N.am  107  ASN107     -0.0877
     50  N         51.0510   59.1770    3.0920 N.3   141  GLU141     -0.1231
     51  CA        51.1950   58.2490    4.2050 C.3   141  GLU141      0.1684
     52  C         52.6710   57.9590    4.4510 C.2   141  GLU141      0.2434
     53  O         53.4160   57.8290    3.4670 O.2   141  GLU141     -0.2733
     54  CB        50.4930   56.9210    3.9380 C.3   141  GLU141      0.0402
     55  CG        49.0110   57.0240    3.6310 C.3   141  GLU141      0.1161
     56  CD        48.1910   57.2650    4.8860 C.2   141  GLU141      0.3649
     57  OE1       46.9540   57.3700    4.7650 O.co2 141  GLU141     -0.2457
     58  OE2       48.7940   57.3510    5.9750 O.co2 141  GLU141     -0.2457
     59  N         53.1080   57.8170    5.6930 N.am  142  PRO142     -0.2729
     60  CA        52.2850   57.9020    6.8980 C.3   142  PRO142      0.1401
     61  C         52.2280   59.2430    7.6110 C.2   142  PRO142      0.2269
     62  O         51.5380   59.3700    8.6380 O.2   142  PRO142     -0.2865
     63  CB        53.0460   56.9060    7.8010 C.3   142  PRO142      0.0296
     64  CG        54.4780   57.1450    7.4670 C.3   142  PRO142      0.0237
     65  CD        54.5160   57.4840    6.0070 C.3   142  PRO142      0.0939
     66  N         49.1130   61.3540    9.2550 N.3   145  ASN145     -0.1240
     67  CA        48.4750   60.9890   10.5100 C.3   145  ASN145      0.1653
     68  C         49.1380   61.5840   11.7440 C.2   145  ASN145      0.2266
     69  O         48.8580   61.1250   12.8610 O.2   145  ASN145     -0.2867
     70  CB        48.4740   59.4600   10.6490 C.3   145  ASN145      0.1155
     71  CG        47.8800   58.7790    9.4310 C.2   145  ASN145      0.2627
     72  OD1       46.6780   58.8880    9.1920 O.2   145  ASN145     -0.2716
     73  ND2       48.7250   58.0870    8.6760 N.am  145  ASN145     -0.0877
     74  N         42.7330   56.3940   12.3200 N.3   212  SER212     -0.1202
     75  CA        43.5520   56.3450   13.5170 C.3   212  SER212      0.2020
     76  C         44.8580   57.0990   13.2930 C.2   212  SER212      0.2619
     77  O         45.3980   57.0900   12.1870 O.2   212  SER212     -0.2717
     78  CB        43.8670   54.8990   13.9090 C.3   212  SER212      0.2103
     79  OG        44.5090   54.2270   12.8330 O.3   212  SER212     -0.2182
     80  N         45.3640   57.7400   14.3440 N.am  213  GLY213     -0.1942
     81  CA        46.6160   58.4630   14.2090 C.3   213  GLY213      0.2014
     82  C         47.2210   58.8040   15.5520 C.2   213  GLY213      0.2638
     83  O         46.7620   58.3280   16.5900 O.2   213  GLY213     -0.2714
     84  N         48.2540   59.6420   15.5120 N.am  214  ASP214     -0.1971
     85  CA        48.8550   60.1160   16.7530 C.3   214  ASP214      0.1709
     86  C         47.8380   60.9520   17.5280 C.2   214  ASP214      0.2293
     87  O         46.7550   61.2550   17.0240 O.2   214  ASP214     -0.2864
     88  CB        50.1300   60.8960   16.4540 C.3   214  ASP214      0.1436
     89  CG        51.3040   60.0120   16.0850 C.2   214  ASP214      0.3671
     90  OD1       51.2720   58.7900   16.3470 O.co2 214  ASP214     -0.2456
     91  OD2       52.2810   60.5560   15.5220 O.co2 214  ASP214     -0.2456
@<TRIPOS>BOND
     1    10     9    2
     2     9     8    1
     3    45    44    2
     4     8    11    1
     5     8     7    1
     6    44    43    1
     7    11    12    1
     8    12    13    1
     9    50    51    1
    10    53    52    2
    11    55    54    1
    12    55    56    1
    13    43    42    1
    14    43    46    1
    15    13    14    1
    16    54    51    1
    17    51    52    1
    18    52    59   am
    19    14    15    1
    20    57    56   ar
    21    46    47    1
    22    56    58   ar
    23    36    37    1
    24    38    37    1
    25    38    39    2
    26    37    40    1
    27     4     3    2
    28    27    26    2
    29    59    65    1
    30    59    60    1
    31    48    47    2
    32    47    49   am
    33    65    64    1
    34    26    25    1
    35     3     2    1
    36    60    61    1
    37    60    63    1
    38    40    41    1
    39    16    17    1
    40     2     5    1
    41     2     1    1
    42     5     6    1
    43    64    63    1
    44    24    25    1
    45    24    18   am
    46    61    62    2
    47    25    28    1
    48    22    21    2
    49    30    32   ar
    50    30    29   ar
    51    32    34   ar
    52    17    18    1
    53    17    20    1
    54    18    19    2
    55    28    29    1
    56    73    71   am
    57    29    31   ar
    58    21    20    1
    59    21    23   am
    60    34    35    1
    61    34    33   ar
    62    72    71    2
    63    66    67    1
    64    31    33   ar
    65    71    70    1
    66    67    70    1
    67    67    68    1
    68    68    69    2
    69    77    76    2
    70    74    75    1
    71    79    78    1
    72    76    75    1
    73    76    80   am
    74    75    78    1
    75    81    80    1
    76    81    82    1
    77    84    82   am
    78    84    85    1
    79    91    89   ar
    80    82    83    2
    81    89    90   ar
    82    89    88    1
    83    88    85    1
    84    85    86    1
    85    87    86    2
