@<TRIPOS>MOLECULE
tmp/1ym0A00.pdb
 89 86 0 0 0
SMALL
GASTEIGER

@<TRIPOS>ATOM
      1  N         59.6590   45.2800   -0.0530 N.3   121  TYR121     -0.1227
      2  CA        59.9770   43.8930   -0.3860 C.3   121  TYR121      0.1736
      3  C         61.2400   43.3060    0.2350 C.2   121  TYR121      0.2595
      4  O         61.6350   42.1860   -0.0990 O.2   121  TYR121     -0.2718
      5  CB        60.0120   43.7050   -1.9090 C.3   121  TYR121      0.0548
      6  CG        58.6950   44.0260   -2.5970 C.ar  121  TYR121     -0.0200
      7  CD1       57.4930   44.0290   -1.8850 C.ar  121  TYR121     -0.0009
      8  CD2       58.6500   44.3020   -3.9620 C.ar  121  TYR121     -0.0009
      9  CE1       56.2770   44.3050   -2.5190 C.ar  121  TYR121      0.0417
     10  CE2       57.4430   44.5730   -4.6040 C.ar  121  TYR121      0.0417
     11  CZ        56.2640   44.5750   -3.8780 C.ar  121  TYR121      0.1957
     12  OH        55.0750   44.8540   -4.5080 O.3   121  TYR121     -0.2866
     13  N         61.8710   44.0450    1.1410 N.am  122  ARG122     -0.1966
     14  CA        63.0680   43.5330    1.8100 C.3   122  ARG122      0.1729
     15  C         62.6730   42.4240    2.7880 C.2   122  ARG122      0.2616
     16  O         61.5500   42.4060    3.3040 O.2   122  ARG122     -0.2715
     17  CB        63.7670   44.6420    2.6070 C.3   122  ARG122      0.0348
     18  CG        64.6150   45.6130    1.7890 C.3   122  ARG122      0.0492
     19  CD        65.8240   44.9210    1.1670 C.3   122  ARG122      0.2205
     20  NE        66.6790   44.2700    2.1590 N.pl3 122  ARG122     -0.0865
     21  CZ        67.5140   44.8990    2.9810 C.cat 122  ARG122      0.5346
     22  NH1       67.6320   46.2250    2.9470 N.pl3 122  ARG122      0.1354
     23  NH2       68.2380   44.1940    3.8430 N.pl3 122  ARG122      0.1354
     24  N         63.5890   41.4920    3.0300 N.am  123  LYS123     -0.1977
     25  CA        63.3330   40.4360    3.9940 C.3   123  LYS123      0.1596
     26  C         63.6260   41.1220    5.3210 C.2   123  LYS123      0.2287
     27  O         64.5800   41.9030    5.4170 O.2   123  LYS123     -0.2864
     28  CB        64.2890   39.2600    3.7940 C.3   123  LYS123      0.0298
     29  CG        64.0890   38.1460    4.8120 C.3   123  LYS123      0.0038
     30  CD        65.0110   36.9630    4.5520 C.3   123  LYS123      0.0206
     31  CE        64.7450   35.8440    5.5460 C.3   123  LYS123      0.1093
     32  NZ        65.6850   34.7040    5.3710 N.3   123  LYS123     -0.1314
     33  N         60.0010   38.1100    7.8920 N.3   148  LEU148     -0.1231
     34  CA        58.8430   38.6040    7.1680 C.3   148  LEU148      0.1693
     35  C         59.2330   39.3820    5.9240 C.2   148  LEU148      0.2592
     36  O         60.4030   39.7030    5.7070 O.2   148  LEU148     -0.2718
     37  CB        58.0390   39.5360    8.0780 C.3   148  LEU148      0.0284
     38  CG        57.6210   38.9980    9.4450 C.3   148  LEU148      0.0019
     39  CD1       57.2950   40.1580   10.3820 C.3   148  LEU148      0.0001
     40  CD2       56.4300   38.0650    9.2770 C.3   148  LEU148      0.0001
     41  N         58.2280   39.7010    5.1210 N.am  149  ASN149     -0.1974
     42  CA        58.4290   40.4790    3.9140 C.3   149  ASN149      0.1688
     43  C         57.7890   41.8430    4.1450 C.2   149  ASN149      0.2292
     44  O         56.6250   41.9300    4.5400 O.2   149  ASN149     -0.2864
     45  CB        57.7570   39.7930    2.7270 C.3   149  ASN149      0.1181
     46  CG        57.9730   40.5350    1.4200 C.2   149  ASN149      0.2629
     47  OD1       58.6370   41.5750    1.3710 O.2   149  ASN149     -0.2716
     48  ND2       57.4050   39.9910    0.3530 N.am  149  ASN149     -0.0877
     49  N         55.9500   44.8450    3.0210 N.3   151  THR151     -0.1218
     50  CA        55.0550   45.1420    1.9080 C.3   151  THR151      0.1862
     51  C         55.0900   46.6190    1.5440 C.2   151  THR151      0.2287
     52  O         55.7440   47.4270    2.2060 O.2   151  THR151     -0.2866
     53  CB        53.5980   44.8140    2.2720 C.3   151  THR151      0.1770
     54  OG1       53.1100   45.8050    3.1860 O.3   151  THR151     -0.2211
     55  CG2       53.4990   43.4470    2.9370 C.3   151  THR151      0.0375
     56  N         49.6780   48.1310   -0.6700 N.3   155  PHE155     -0.1241
     57  CA        49.1880   46.7630   -0.5330 C.3   155  PHE155      0.1605
     58  C         48.5390   46.5990    0.8400 C.2   155  PHE155      0.2264
     59  O         47.3960   46.1620    0.9620 O.2   155  PHE155     -0.2867
     60  CB        50.3480   45.7690   -0.6640 C.3   155  PHE155      0.0534
     61  CG        49.9790   44.3630   -0.2990 C.ar  155  PHE155     -0.0203
     62  CD1       49.2950   43.5510   -1.1970 C.ar  155  PHE155     -0.0042
     63  CD2       50.2700   43.8680    0.9650 C.ar  155  PHE155     -0.0042
     64  CE1       48.9020   42.2600   -0.8390 C.ar  155  PHE155     -0.0003
     65  CE2       49.8840   42.5800    1.3370 C.ar  155  PHE155     -0.0003
     66  CZ        49.1980   41.7750    0.4330 C.ar  155  PHE155     -0.0000
     67  N         54.6060   40.9440    6.4610 N.3   173  THR173     -0.1203
     68  CA        53.8400   39.7110    6.5910 C.3   173  THR173      0.1994
     69  C         54.5120   38.5920    5.7900 C.2   173  THR173      0.2618
     70  O         55.6100   38.7720    5.2600 O.2   173  THR173     -0.2717
     71  CB        52.3970   39.9260    6.0720 C.3   173  THR173      0.1784
     72  OG1       51.6040   38.7630    6.3330 O.3   173  THR173     -0.2211
     73  CG2       52.4090   40.2040    4.5700 C.3   173  THR173      0.0376
     74  N         53.8610   37.4350    5.7130 N.am  174  ASP174     -0.1959
     75  CA        54.4020   36.3120    4.9520 C.3   174  ASP174      0.1840
     76  C         53.9350   36.4280    3.4970 C.2   174  ASP174      0.2622
     77  O         53.1340   37.3020    3.1700 O.2   174  ASP174     -0.2715
     78  CB        53.9290   34.9850    5.5550 C.3   174  ASP174      0.1450
     79  CG        52.4160   34.8700    5.5970 C.2   174  ASP174      0.3671
     80  OD1       51.7780   34.9480    4.5250 O.co2 174  ASP174     -0.2456
     81  OD2       51.8630   34.6990    6.7040 O.co2 174  ASP174     -0.2456
     82  N         54.4460   35.5580    2.6270 N.am  175  ASN175     -0.1972
     83  CA        54.0770   35.5650    1.2090 C.3   175  ASN175      0.1688
     84  C         53.0830   34.4400    0.9230 C.2   175  ASN175      0.2292
     85  O         52.8000   34.1290   -0.2310 O.2   175  ASN175     -0.2864
     86  CB        55.3150   35.3290    0.3340 C.3   175  ASN175      0.1181
     87  CG        56.3590   36.4140    0.4830 C.2   175  ASN175      0.2629
     88  OD1       57.5560   36.1290    0.5650 O.2   175  ASN175     -0.2716
     89  ND2       55.9170   37.6650    0.5030 N.am  175  ASN175     -0.0877
@<TRIPOS>BOND
     1    10     8   ar
     2    10    11   ar
     3    12    11    1
     4     8     6   ar
     5    11     9   ar
     6     6     5    1
     7     6     7   ar
     8     9     7   ar
     9     5     2    1
    10    62    64   ar
    11    62    61   ar
    12    64    66   ar
    13    56    57    1
    14    60    57    1
    15    60    61    1
    16    57    58    1
    17     2     1    1
    18     2     3    1
    19    61    63   ar
    20    85    84    2
    21     4     3    2
    22     3    13   am
    23    86    87    1
    24    86    83    1
    25    48    46   am
    26    66    65   ar
    27    87    89   am
    28    87    88    2
    29    58    59    2
    30    84    83    1
    31    63    65   ar
    32    13    14    1
    33    19    18    1
    34    19    20    1
    35    83    82    1
    36    47    46    2
    37    46    45    1
    38    51    50    1
    39    51    52    2
    40    18    17    1
    41    14    17    1
    42    14    15    1
    43    50    53    1
    44    50    49    1
    45    20    21    2
    46    53    55    1
    47    53    54    1
    48    82    76   am
    49    45    42    1
    50    15    24   am
    51    15    16    2
    52    22    21    1
    53    21    23    1
    54    24    25    1
    55    77    76    2
    56    76    75    1
    57    28    25    1
    58    28    29    1
    59    42    43    1
    60    42    41    1
    61    25    26    1
    62    43    44    2
    63    80    79   ar
    64    30    29    1
    65    30    31    1
    66    73    71    1
    67    75    78    1
    68    75    74    1
    69    41    35   am
    70    70    69    2
    71    26    27    2
    72    32    31    1
    73    78    79    1
    74    79    81   ar
    75    36    35    2
    76    74    69   am
    77    69    68    1
    78    35    34    1
    79    71    72    1
    80    71    68    1
    81    67    68    1
    82    34    33    1
    83    34    37    1
    84    37    38    1
    85    40    38    1
    86    38    39    1
