@<TRIPOS>MOLECULE
tmp/1ym1B00.pdb
 139 133 0 0 0
SMALL
GASTEIGER

@<TRIPOS>ATOM
      1  N        -13.4790   85.5980   31.1300 N.3    42  SER42      -0.1217
      2  CA       -13.8800   85.7140   32.5340 C.3    42  SER42       0.1889
      3  C        -15.2920   85.2260   32.8200 C.2    42  SER42       0.2288
      4  O        -15.6650   85.1570   33.9970 O.2    42  SER42      -0.2866
      5  CB       -13.7530   87.1640   33.0000 C.3    42  SER42       0.2089
      6  OG       -12.4080   87.5320   33.2310 O.3    42  SER42      -0.2183
      7  N         -2.5490   90.2500   35.9720 N.3    76  ASN76      -0.1225
      8  CA        -2.6390   91.4340   35.1210 C.3    76  ASN76       0.1785
      9  C         -3.7750   92.3660   35.4880 C.2    76  ASN76       0.2597
     10  O         -3.8040   93.4970   35.0000 O.2    76  ASN76      -0.2718
     11  CB        -2.8140   91.0070   33.6570 C.3    76  ASN76       0.1169
     12  CG        -4.1200   90.2470   33.4800 C.2    76  ASN76       0.2627
     13  OD1       -4.4400   89.3770   34.2960 O.2    76  ASN76      -0.2716
     14  ND2       -4.8660   90.5620   32.4320 N.am   76  ASN76      -0.0877
     15  N         -4.7290   91.9560   36.3030 N.am   77  TYR77      -0.1976
     16  CA        -5.8970   92.7610   36.5950 C.3    77  TYR77       0.1639
     17  C         -6.4650   92.3190   37.9390 C.2    77  TYR77       0.2290
     18  O         -7.0590   91.2640   38.0860 O.2    77  TYR77      -0.2864
     19  CB        -6.9910   92.6560   35.5340 C.3    77  TYR77       0.0560
     20  CG        -8.1370   93.5870   35.8610 C.ar   77  TYR77      -0.0198
     21  CD1       -9.4020   93.1390   36.2250 C.ar   77  TYR77      -0.0009
     22  CD2       -7.9000   94.9530   35.7990 C.ar   77  TYR77      -0.0009
     23  CE1      -10.4040   94.0560   36.5140 C.ar   77  TYR77       0.0417
     24  CE2       -8.8820   95.8690   36.0830 C.ar   77  TYR77       0.0417
     25  CZ       -10.1340   95.4030   36.4430 C.ar   77  TYR77       0.1957
     26  OH       -11.1120   96.3280   36.7220 O.3    77  TYR77      -0.2866
     27  N        -16.0650   92.3300   40.1070 N.3   101  TYR101     -0.1227
     28  CA       -15.0160   93.1820   39.5740 C.3   101  TYR101      0.1736
     29  C        -14.1640   92.4810   38.5300 C.2   101  TYR101      0.2596
     30  O        -13.2880   93.1020   37.9110 O.2   101  TYR101     -0.2718
     31  CB       -14.1380   93.7010   40.7310 C.3   101  TYR101      0.0548
     32  CG       -14.9390   94.5680   41.6820 C.ar  101  TYR101     -0.0200
     33  CD1      -15.6540   94.0100   42.7350 C.ar  101  TYR101     -0.0009
     34  CD2      -14.9940   95.9440   41.5060 C.ar  101  TYR101     -0.0009
     35  CE1      -16.3880   94.8180   43.5890 C.ar  101  TYR101      0.0417
     36  CE2      -15.7220   96.7490   42.3500 C.ar  101  TYR101      0.0417
     37  CZ       -16.4230   96.1810   43.3950 C.ar  101  TYR101      0.1957
     38  OH       -17.1450   96.9990   44.2340 O.3   101  TYR101     -0.2866
     39  N        -14.3780   91.1910   38.3010 N.am  102  SER102     -0.1952
     40  CA       -13.5840   90.4070   37.3560 C.3   102  SER102      0.1924
     41  C        -12.1120   90.3530   37.7680 C.2   102  SER102      0.2314
     42  O        -11.2000   90.3040   36.9490 O.2   102  SER102     -0.2863
     43  CB       -13.7430   90.9070   35.9160 C.3   102  SER102      0.2116
     44  OG       -13.7380   89.7560   35.0790 O.3   102  SER102     -0.2180
     45  N         -8.7170   88.9120   38.5580 N.3   104  ASN104     -0.1240
     46  CA        -8.0810   87.7110   38.0630 C.3   104  ASN104      0.1653
     47  C         -7.2840   86.9860   39.1370 C.2   104  ASN104      0.2266
     48  O         -7.1880   85.7530   39.0700 O.2   104  ASN104     -0.2867
     49  CB        -7.1580   88.0260   36.8820 C.3   104  ASN104      0.1155
     50  CG        -7.9170   88.2570   35.5940 C.2   104  ASN104      0.2627
     51  OD1       -9.0910   87.9190   35.4950 O.2   104  ASN104     -0.2716
     52  ND2       -7.2710   88.8230   34.5830 N.am  104  ASN104     -0.0877
     53  N         -5.7990   82.3000   35.0850 N.3   138  GLU138     -0.1231
     54  CA        -5.6330   83.6610   34.6010 C.3   138  GLU138      0.1684
     55  C         -4.1620   84.0490   34.6100 C.2   138  GLU138      0.2434
     56  O         -3.4740   83.7510   35.5920 O.2   138  GLU138     -0.2733
     57  CB        -6.4110   84.6270   35.4910 C.3   138  GLU138      0.0402
     58  CG        -7.9170   84.5520   35.4090 C.3   138  GLU138      0.1161
     59  CD        -8.5030   85.1780   34.1520 C.2   138  GLU138      0.3649
     60  OE1       -9.7560   85.1470   34.0280 O.co2 138  GLU138     -0.2457
     61  OE2       -7.7310   85.6930   33.3260 O.co2 138  GLU138     -0.2457
     62  N         -3.6460   84.7600   33.6050 N.am  139  PRO139     -0.2729
     63  CA        -4.3810   85.2900   32.4720 C.3   139  PRO139      0.1401
     64  C         -4.3870   84.4560   31.2000 C.2   139  PRO139      0.2269
     65  O         -5.0200   84.8870   30.2250 O.2   139  PRO139     -0.2865
     66  CB        -3.5940   86.5900   32.1970 C.3   139  PRO139      0.0296
     67  CG        -2.1810   86.2010   32.4740 C.3   139  PRO139      0.0237
     68  CD        -2.2360   85.2180   33.6110 C.3   139  PRO139      0.0939
     69  N         -7.3130   83.5040   28.5450 N.3   142  ASN142     -0.1225
     70  CA        -7.8880   84.4810   27.6380 C.3   142  ASN142      0.1785
     71  C         -7.2320   84.5090   26.2660 C.2   142  ASN142      0.2597
     72  O         -7.5130   85.4380   25.5040 O.2   142  ASN142     -0.2718
     73  CB        -7.7730   85.9040   28.2080 C.3   142  ASN142      0.1169
     74  CG        -8.4800   85.9920   29.5470 C.2   142  ASN142      0.2627
     75  OD1       -9.6970   85.8680   29.5930 O.2   142  ASN142     -0.2716
     76  ND2       -7.7140   86.1490   30.6150 N.am  142  ASN142     -0.0877
     77  N         -6.3690   83.5670   25.9070 N.am  143  THR143     -0.1953
     78  CA        -5.6880   83.7040   24.6130 C.3   143  THR143      0.1897
     79  C         -6.6530   83.6170   23.4380 C.2   143  THR143      0.2313
     80  O         -6.4020   84.2260   22.3910 O.2   143  THR143     -0.2863
     81  CB        -4.5840   82.6550   24.4360 C.3   143  THR143      0.1794
     82  OG1       -5.0930   81.3440   24.7120 O.3   143  THR143     -0.2208
     83  CG2       -3.4430   82.9380   25.4080 C.3   143  THR143      0.0378
     84  N        -19.5320   95.4290   36.1140 N.3   188  THR188     -0.1218
     85  CA       -18.9170   95.5440   34.7930 C.3   188  THR188      0.1862
     86  C        -19.8800   95.4250   33.6220 C.2   188  THR188      0.2287
     87  O        -19.4020   95.4360   32.4790 O.2   188  THR188     -0.2866
     88  CB       -17.8090   94.4810   34.5790 C.3   188  THR188      0.1770
     89  OG1      -18.4530   93.1940   34.5000 O.3   188  THR188     -0.2211
     90  CG2      -16.7970   94.4930   35.7120 C.3   188  THR188      0.0375
     91  N        -22.3220   88.2240   34.1670 N.3   206  LYS206     -0.1231
     92  CA       -20.8720   88.1920   34.2320 C.3   206  LYS206      0.1693
     93  C        -20.2990   88.3700   32.8320 C.2   206  LYS206      0.2593
     94  O        -20.5960   87.5990   31.9240 O.2   206  LYS206     -0.2718
     95  CB       -20.3390   86.8760   34.8100 C.3   206  LYS206      0.0285
     96  CG       -18.8230   86.8100   34.8720 C.3   206  LYS206      0.0035
     97  CD       -18.2500   87.6250   36.0180 C.3   206  LYS206      0.0206
     98  CE       -16.7810   87.9380   35.8700 C.3   206  LYS206      0.1093
     99  NZ       -16.4890   89.0050   34.8680 N.3   206  LYS206     -0.1314
    100  N        -19.4630   89.3960   32.6650 N.am  207  THR207     -0.1939
    101  CA       -18.7930   89.7330   31.4220 C.3   207  THR207      0.2028
    102  C        -17.5130   88.9300   31.2680 C.2   207  THR207      0.2643
    103  O        -16.9700   88.3350   32.2040 O.2   207  THR207     -0.2714
    104  CB       -18.4590   91.2370   31.3520 C.3   207  THR207      0.1808
    105  OG1      -17.7310   91.5640   32.5500 O.3   207  THR207     -0.2208
    106  CG2      -19.7260   92.0760   31.2990 C.3   207  THR207      0.0379
    107  N        -16.9560   88.9280   30.0740 N.am  208  GLY208     -0.1939
    108  CA       -15.5840   88.5080   29.8450 C.3   208  GLY208      0.2014
    109  C        -14.9870   89.2000   28.6400 C.2   208  GLY208      0.2640
    110  O        -15.7090   89.6250   27.7360 O.2   208  GLY208     -0.2714
    111  N        -13.6760   89.2960   28.6310 N.am  209  SER209     -0.1935
    112  CA       -12.9270   89.9300   27.5630 C.3   209  SER209      0.2055
    113  C        -11.6290   89.1680   27.3820 C.2   209  SER209      0.2644
    114  O        -11.0440   88.6740   28.3520 O.2   209  SER209     -0.2714
    115  CB       -12.6590   91.3990   27.8910 C.3   209  SER209      0.2130
    116  OG       -11.8990   91.4760   29.0820 O.3   209  SER209     -0.2179
    117  N        -11.1290   89.0770   26.1620 N.am  210  GLY210     -0.1939
    118  CA        -9.8600   88.4440   25.9210 C.3   210  GLY210      0.2014
    119  C         -9.2460   88.8540   24.5990 C.2   210  GLY210      0.2638
    120  O         -9.6930   89.7940   23.9480 O.2   210  GLY210     -0.2714
    121  N         -8.2090   88.1240   24.2180 N.am  211  ASP211     -0.1971
    122  CA        -7.5770   88.3830   22.9270 C.3   211  ASP211      0.1709
    123  C         -8.5470   88.0640   21.7910 C.2   211  ASP211      0.2293
    124  O         -9.6480   87.5510   22.0370 O.2   211  ASP211     -0.2864
    125  CB        -6.3010   87.5680   22.7920 C.3   211  ASP211      0.1436
    126  CG        -5.1470   88.1060   23.6170 C.2   211  ASP211      0.3671
    127  OD1       -5.2340   89.2200   24.1670 O.co2 211  ASP211     -0.2456
    128  OD2       -4.1510   87.3660   23.7060 O.co2 211  ASP211     -0.2456
    129  N        -18.5130   95.5110   23.0310 N.3   246  ARG246     -0.1197
    130  CA       -19.6330   95.2760   23.9480 C.3   246  ARG246      0.1779
    131  C        -20.9430   95.6790   23.2920 C.2   246  ARG246      0.2305
    132  O        -22.0010   95.1200   23.5820 O.2   246  ARG246     -0.2863
    133  CB       -19.3980   95.9900   25.2850 C.2   246  ARG246     -0.0007
    134  CG       -18.2620   95.4320   26.1250 C.2   246  ARG246      0.0176
    135  CD       -17.9490   96.2000   27.3940 C.3   246  ARG246      0.2464
    136  NE       -17.5520   95.3750   28.5300 N.pl3 246  ARG246     -0.0815
    137  CZ       -17.2060   95.7910   29.7410 C.cat 246  ARG246      0.5349
    138  NH1      -17.1740   97.0760   30.0690 N.pl3 246  ARG246      0.1354
    139  NH2      -16.8700   94.9280   30.7010 N.pl3 246  ARG246      0.1354
@<TRIPOS>BOND
     1   123   124    2
     2   123   122    1
     3    80    79    2
     4   125   122    1
     5   125   126    1
     6   122   121    1
     7   129   130    1
     8   131   132    2
     9   131   130    1
    10    79    78    1
    11   126   128   ar
    12   126   127   ar
    13   130   133    1
    14   120   119    2
    15   121   119   am
    16    81    78    1
    17    81    82    1
    18    81    83    1
    19   119   118    1
    20    78    77    1
    21   133   134    2
    22    72    71    2
    23    77    71   am
    24   118   117    1
    25   134   135    1
    26   117   113   am
    27    71    70    1
    28   113   112    1
    29   113   114    2
    30   135   136    1
    31   112   115    1
    32   112   111    1
    33    70    73    1
    34    70    69    1
    35   110   109    2
    36   115   116    1
    37    73    74    1
    38   136   137    2
    39   111   109   am
    40   109   108    1
    41    74    75    2
    42    74    76   am
    43   137   138    1
    44   137   139    1
    45   108   107    1
    46   107   102   am
    47    65    64    2
    48     1     2    1
    49    64    63    1
    50   102   101    1
    51   102   103    2
    52   106   104    1
    53   104   101    1
    54   104   105    1
    55   101   100    1
    56    94    93    2
    57    66    63    1
    58    66    67    1
    59    14    12   am
    60    63    62    1
    61    67    68    1
    62    87    86    2
    63     2     3    1
    64     2     5    1
    65   100    93   am
    66     3     4    2
    67    93    92    1
    68     5     6    1
    69    61    59   ar
    70    12    11    1
    71    12    13    2
    72    62    68    1
    73    62    55   am
    74    86    85    1
    75    11     8    1
    76    60    59   ar
    77    59    58    1
    78    91    92    1
    79    92    95    1
    80    89    88    1
    81    88    85    1
    82    88    90    1
    83    52    50   am
    84    54    55    1
    85    54    53    1
    86    54    57    1
    87    55    56    2
    88    85    84    1
    89    95    96    1
    90    99    98    1
    91    96    97    1
    92    10     9    2
    93    44    43    1
    94     8     9    1
    95     8     7    1
    96    58    57    1
    97     9    15   am
    98    51    50    2
    99    19    20    1
   100    19    16    1
   101    50    49    1
   102    22    20   ar
   103    22    24   ar
   104    20    21   ar
   105    98    97    1
   106    43    40    1
   107    24    25   ar
   108    21    23   ar
   109    15    16    1
   110    25    23   ar
   111    25    26    1
   112    16    17    1
   113    49    46    1
   114    42    41    2
   115    40    41    1
   116    40    39    1
   117    30    29    2
   118    17    18    2
   119    46    45    1
   120    46    47    1
   121    39    29   am
   122    29    28    1
   123    48    47    2
   124    28    27    1
   125    28    31    1
   126    31    32    1
   127    34    32   ar
   128    34    36   ar
   129    32    33   ar
   130    36    37   ar
   131    33    35   ar
   132    37    35   ar
   133    37    38    1
