@<TRIPOS>MOLECULE
tmp/1ymcA00.pdb
 210 201 0 0 0
SMALL
GASTEIGER

@<TRIPOS>ATOM
      1  N         20.5160   18.2860    1.8110 N.3    32  LEU32      -0.1245
      2  CA        19.5060   18.8550    0.9690 C.3    32  LEU32       0.1561
      3  C         20.1560   19.2710   -0.3590 C.2    32  LEU32       0.2260
      4  O         19.6650   18.9960   -1.4550 O.2    32  LEU32      -0.2867
      5  CB        18.8630   20.0180    1.7400 C.3    32  LEU32       0.0270
      6  CG        18.1680   21.0750    0.9550 C.3    32  LEU32       0.0019
      7  CD1       16.8120   20.6180    0.4850 C.3    32  LEU32       0.0001
      8  CD2       18.0500   22.3320    1.8750 C.3    32  LEU32       0.0001
      9  N         17.8160   23.1340   -5.2390 N.3    39  THR39      -0.1218
     10  CA        17.4790   23.9870   -4.0480 C.3    39  THR39       0.1862
     11  C         18.5830   24.9440   -3.6810 C.2    39  THR39       0.2287
     12  O         18.4210   26.0700   -3.1760 O.2    39  THR39      -0.2866
     13  CB        17.1410   22.9840   -2.8650 C.3    39  THR39       0.1770
     14  OG1       18.4460   22.3300   -2.6930 O.3    39  THR39      -0.2211
     15  CG2       16.0710   21.8950   -3.0680 C.3    39  THR39       0.0375
     16  N         18.7470   28.7370   -4.9880 N.3    42  LYS42      -0.1231
     17  CA        17.8700   29.7610   -4.3990 C.3    42  LYS42       0.1693
     18  C         18.5490   30.7320   -3.4840 C.2    42  LYS42       0.2592
     19  O         18.0040   31.8230   -3.0840 O.2    42  LYS42      -0.2718
     20  CB        16.7370   29.0030   -3.6410 C.3    42  LYS42       0.0285
     21  CG        15.9000   28.1240   -4.5920 C.3    42  LYS42       0.0035
     22  CD        15.1730   28.9680   -5.6460 C.3    42  LYS42       0.0206
     23  CE        13.8400   28.4240   -6.0710 C.3    42  LYS42       0.1093
     24  NZ        12.7530   29.3510   -5.5830 N.3    42  LYS42      -0.1314
     25  N         19.6810   30.3010   -3.0900 N.am   43  PHE43      -0.1962
     26  CA        20.5470   30.9800   -2.1840 C.3    43  PHE43       0.1771
     27  C         21.6140   31.7250   -2.9990 C.2    43  PHE43       0.2620
     28  O         22.3420   31.1820   -3.7410 O.2    43  PHE43      -0.2715
     29  CB        21.1740   29.9890   -1.1290 C.3    43  PHE43       0.0574
     30  CG        20.2040   29.2250   -0.2540 C.ar   43  PHE43      -0.0200
     31  CD1       19.8680   29.7960    0.9940 C.ar   43  PHE43      -0.0042
     32  CD2       19.7190   27.9970   -0.5270 C.ar   43  PHE43      -0.0042
     33  CE1       18.9660   29.1410    1.8140 C.ar   43  PHE43      -0.0003
     34  CE2       18.8450   27.3210    0.3130 C.ar   43  PHE43      -0.0003
     35  CZ        18.4670   27.8940    1.5240 C.ar   43  PHE43      -0.0000
     36  N         21.6130   33.0600   -2.8290 N.am   44  ASP44      -0.1957
     37  CA        22.7130   33.7710   -3.5900 C.3    44  ASP44       0.1840
     38  C         23.9290   33.6830   -2.6150 C.2    44  ASP44       0.2618
     39  O         25.0240   33.9700   -3.1380 O.2    44  ASP44      -0.2715
     40  CB        22.3110   35.1100   -4.1760 C.3    44  ASP44       0.1450
     41  CG        20.8180   35.1770   -4.5190 C.2    44  ASP44       0.3671
     42  OD1       20.4690   34.3240   -5.3890 O.co2  44  ASP44      -0.2456
     43  OD2       20.0600   36.0240   -3.9500 O.co2  44  ASP44      -0.2456
     44  N         23.7970   33.2240   -1.3490 N.am   45  LYS45      -0.2030
     45  CA        25.1060   33.1500   -0.5870 C.3    45  LYS45       0.1282
     46  C         25.7470   31.7590   -0.5210 C.3    45  LYS45       0.2036
     47  O         26.9030   31.6940    0.0490 O.3    45  LYS45      -0.2185
     48  CB        24.9990   33.8350    0.7770 C.3    45  LYS45       0.0244
     49  CG        24.1730   33.0680    1.8660 C.3    45  LYS45       0.0034
     50  CD        23.1210   33.8990    2.5460 C.3    45  LYS45       0.0206
     51  CE        23.3140   34.3500    3.9260 C.3    45  LYS45       0.1093
     52  NZ        22.2700   34.1510    4.9830 N.3    45  LYS45      -0.1314
     53  N         23.9840   29.2500    8.8340 N.3    64  HIS64      -0.1297
     54  CA        22.5470   29.3180    8.2950 C.3    64  HIS64       0.1306
     55  C         21.8490   28.0920    8.8160 C.3    64  HIS64       0.2013
     56  O         20.6330   28.2990    9.0790 O.3    64  HIS64      -0.2188
     57  CB        22.2810   29.5720    6.8660 C.3    64  HIS64       0.0691
     58  CG        20.9280   29.7380    6.2880 C.ar   64  HIS64       0.0814
     59  ND1       20.0450   30.7020    6.4450 N.ar   64  HIS64      -0.2268
     60  CD2       20.3020   28.8070    5.4940 C.ar   64  HIS64       0.1154
     61  CE1       18.8770   30.4650    5.9130 C.ar   64  HIS64       0.1986
     62  NE2       19.0450   29.2830    5.2780 N.ar   64  HIS64      -0.2212
     63  N         19.9690   28.8200   12.1050 N.3    67  VAL67      -0.1231
     64  CA        18.7990   29.7450   12.0620 C.3    67  VAL67       0.1692
     65  C         17.6130   28.9180   11.7760 C.2    67  VAL67       0.2591
     66  O         16.4830   28.9790   12.3470 O.2    67  VAL67      -0.2718
     67  CB        19.3490   30.8410   11.1340 C.3    67  VAL67       0.0266
     68  CG1       18.3430   31.8580   10.5450 C.3    67  VAL67       0.0020
     69  CG2       20.4970   31.5750   11.9010 C.3    67  VAL67       0.0020
     70  N         17.9140   27.9840   10.7870 N.am   68  VAL68      -0.1980
     71  CA        16.9190   27.0090   10.3680 C.3    68  VAL68       0.1595
     72  C         16.4010   26.2180   11.5840 C.2    68  VAL68       0.2287
     73  O         15.2590   26.4530   11.9190 O.2    68  VAL68      -0.2864
     74  CB        17.3810   26.1770    9.1820 C.3    68  VAL68       0.0276
     75  CG1       16.2130   25.2060    8.6430 C.3    68  VAL68       0.0022
     76  CG2       17.7950   26.8730    7.9930 C.3    68  VAL68       0.0022
     77  N         14.8570   28.4430   14.3640 N.3    71  ALA71      -0.1231
     78  CA        13.4410   28.7540   14.0220 C.3    71  ALA71       0.1694
     79  C         12.5420   27.5090   14.0430 C.2    71  ALA71       0.2591
     80  O         11.3900   27.6190   14.4890 O.2    71  ALA71      -0.2718
     81  CB        13.1410   29.3820   12.5960 C.3    71  ALA71       0.0304
     82  N         13.0700   26.3470   13.5740 N.am   72  LEU72      -0.1980
     83  CA        12.1400   25.1810   13.6070 C.3    72  LEU72       0.1596
     84  C         11.9260   24.7560   15.0570 C.2    72  LEU72       0.2287
     85  O         10.8250   24.3180   15.4190 O.2    72  LEU72      -0.2864
     86  CB        12.9490   24.1160   12.8260 C.3    72  LEU72       0.0297
     87  CG        12.2850   22.9300   12.1910 C.3    72  LEU72       0.0022
     88  CD1       12.1460   23.2050   10.6790 C.3    72  LEU72       0.0001
     89  CD2       13.0280   21.6220   12.1980 C.3    72  LEU72       0.0001
     90  N          9.1990   26.4250   16.6560 N.3    75  ILE75      -0.1245
     91  CA         7.7790   26.1190   16.3190 C.3    75  ILE75       0.1561
     92  C          7.2940   24.8840   17.0600 C.2    75  ILE75       0.2260
     93  O          6.2450   24.6820   17.6380 O.2    75  ILE75      -0.2867
     94  CB         7.6040   26.0210   14.7360 C.3    75  ILE75       0.0252
     95  CG1        7.6760   27.4360   14.1140 C.3    75  ILE75       0.0019
     96  CG2        6.2980   25.3680   14.2050 C.3    75  ILE75       0.0019
     97  CD1        8.3360   27.3490   12.6600 C.3    75  ILE75       0.0001
     98  N          4.6790   34.2970    9.2350 N.3    88  PRO88      -0.2102
     99  CA         5.7970   34.9530    8.6950 C.3    88  PRO88       0.1504
    100  C          6.7610   34.1770    7.8310 C.2    88  PRO88       0.2575
    101  O          7.3430   34.8890    6.9360 O.2    88  PRO88      -0.2718
    102  CB         6.6670   35.4120    9.9660 C.3    88  PRO88       0.0282
    103  CG         6.3130   34.2140   10.8800 C.3    88  PRO88       0.0208
    104  CD         4.7430   34.3770   10.7550 C.3    88  PRO88       0.0893
    105  N          6.9640   32.9480    8.1460 N.am   89  LEU89      -0.1980
    106  CA         7.8740   32.0630    7.2980 C.3    89  LEU89       0.1596
    107  C          7.1630   31.6770    6.0480 C.2    89  LEU89       0.2287
    108  O          7.6890   31.8530    4.9270 O.2    89  LEU89      -0.2864
    109  CB         8.3700   30.9700    8.2300 C.3    89  LEU89       0.0297
    110  CG         9.4600   31.5220    9.1830 C.3    89  LEU89       0.0022
    111  CD1        9.6730   30.3930   10.2390 C.3    89  LEU89       0.0001
    112  CD2       10.7800   31.9690    8.4610 C.3    89  LEU89       0.0001
    113  N          7.2010   34.5090    4.0620 N.3    92  SER92      -0.1202
    114  CA         8.5490   34.8520    3.4690 C.3    92  SER92       0.2020
    115  C          8.9490   33.8620    2.3700 C.2    92  SER92       0.2618
    116  O          9.4070   34.3010    1.3050 O.2    92  SER92      -0.2717
    117  CB         9.6540   34.9500    4.5400 C.3    92  SER92       0.2103
    118  OG         9.6160   33.5820    5.0950 O.3    92  SER92      -0.2182
    119  N          8.8430   32.6130    2.6140 N.am   93  HIS93      -0.1975
    120  CA         9.3130   31.5790    1.6860 C.3    93  HIS93       0.1656
    121  C          8.5070   31.5490    0.3950 C.2    93  HIS93       0.2291
    122  O          9.0800   31.0600   -0.6010 O.2    93  HIS93      -0.2864
    123  CB         9.3710   30.1410    2.3150 C.3    93  HIS93       0.0771
    124  CG        10.4480   30.1550    3.4330 C.ar   93  HIS93       0.0820
    125  ND1       10.4250   30.9880    4.5540 N.ar   93  HIS93      -0.2267
    126  CD2       11.6250   29.5310    3.4160 C.ar   93  HIS93       0.1154
    127  CE1       11.4860   30.7260    5.1910 C.ar   93  HIS93       0.1986
    128  NE2       12.2900   29.9290    4.5610 N.ar   93  HIS93      -0.2212
    129  N          8.5800   36.2150   -1.1320 N.3    96  LYS96      -0.1231
    130  CA        10.0200   36.6040   -1.2800 C.3    96  LYS96       0.1693
    131  C         10.9240   35.5800   -1.8930 C.2    96  LYS96       0.2588
    132  O         11.4700   35.7940   -2.9900 O.2    96  LYS96      -0.2718
    133  CB        10.3940   37.0040    0.1530 C.3    96  LYS96       0.0285
    134  CG        11.8100   37.4590    0.2750 C.3    96  LYS96       0.0035
    135  CD        12.0480   38.5450    1.2580 C.3    96  LYS96       0.0206
    136  CE        13.1480   39.4440    0.6310 C.3    96  LYS96       0.1093
    137  NZ        14.3750   38.6860    0.8110 N.3    96  LYS96      -0.1314
    138  N         11.1180   34.4660   -1.1490 N.am   97  HIS97      -0.2029
    139  CA        12.0650   33.4150   -1.5980 C.3    97  HIS97       0.1342
    140  C         11.3480   32.5250   -2.5780 C.3    97  HIS97       0.2040
    141  O         12.1530   31.8670   -3.3540 O.3    97  HIS97      -0.2185
    142  CB        12.8510   32.6270   -0.5880 C.3    97  HIS97       0.0718
    143  CG        13.3550   33.4450    0.5870 C.ar   97  HIS97       0.0817
    144  ND1       13.9950   34.6670    0.5670 N.ar   97  HIS97      -0.2268
    145  CD2       13.1130   33.1800    1.8580 C.ar   97  HIS97       0.1154
    146  CE1       14.1370   35.0790    1.7550 C.ar   97  HIS97       0.1986
    147  NE2       13.6480   34.1970    2.5610 N.ar   97  HIS97      -0.2212
    148  N          9.8780   29.6350   -2.7240 N.3    99  ILE99      -0.1301
    149  CA        10.2600   28.1730   -2.5670 C.3    99  ILE99       0.1246
    150  C          9.0160   27.3320   -2.6140 C.3    99  ILE99       0.2009
    151  O          8.1750   27.5300   -1.6580 O.3    99  ILE99      -0.2188
    152  CB        11.0840   28.1240   -1.2150 C.3    99  ILE99       0.0202
    153  CG1       12.6070   28.4460   -1.4390 C.3    99  ILE99       0.0015
    154  CG2       10.9300   26.8960   -0.3290 C.3    99  ILE99       0.0016
    155  CD1       13.4690   27.6450   -2.3900 C.3    99  ILE99       0.0000
    156  N          9.9630   21.3830   -1.5410 N.3   103  TYR103     -0.1227
    157  CA        11.4140   21.6490   -1.0800 C.3   103  TYR103      0.1736
    158  C         11.3500   21.5420    0.4620 C.2   103  TYR103      0.2595
    159  O         12.2580   21.0980    1.1860 O.2   103  TYR103     -0.2718
    160  CB        11.7620   22.8800   -1.7190 C.3   103  TYR103      0.0548
    161  CG        12.3410   23.1540   -3.0490 C.ar  103  TYR103     -0.0200
    162  CD1       12.2490   22.2870   -4.1250 C.ar  103  TYR103     -0.0009
    163  CD2       13.0330   24.4200   -3.1680 C.ar  103  TYR103     -0.0009
    164  CE1       12.8150   22.6660   -5.3430 C.ar  103  TYR103      0.0417
    165  CE2       13.5660   24.8180   -4.4170 C.ar  103  TYR103      0.0417
    166  CZ        13.4650   23.9240   -5.4480 C.ar  103  TYR103      0.1957
    167  OH        14.0420   24.1230   -6.6830 O.3   103  TYR103     -0.2866
    168  N         10.2430   21.9190    0.9580 N.am  104  LEU104     -0.1980
    169  CA         9.9050   21.7090    2.3860 C.3   104  LEU104      0.1596
    170  C          9.7640   20.1810    2.5980 C.2   104  LEU104      0.2287
    171  O          9.8380   19.7930    3.7970 O.2   104  LEU104     -0.2864
    172  CB         8.6960   22.4470    2.7770 C.3   104  LEU104      0.0297
    173  CG         8.4270   23.9120    2.9950 C.3   104  LEU104      0.0022
    174  CD1        7.2970   24.0670    4.0000 C.3   104  LEU104      0.0001
    175  CD2        9.6210   24.6120    3.6020 C.3   104  LEU104      0.0001
    176  N         13.5020   18.9070    2.8320 N.3   107  ILE107     -0.1245
    177  CA        14.1550   19.2430    4.1060 C.3   107  ILE107      0.1561
    178  C         13.6930   18.3070    5.2270 C.2   107  ILE107      0.2260
    179  O         14.5130   17.9370    6.1420 O.2   107  ILE107     -0.2867
    180  CB        13.9140   20.7270    4.5010 C.3   107  ILE107      0.0252
    181  CG1       14.6220   21.1560    5.8270 C.3   107  ILE107      0.0019
    182  CG2       12.3550   20.9400    4.6170 C.3   107  ILE107      0.0019
    183  CD1       15.7540   22.2240    5.6790 C.3   107  ILE107      0.0001
    184  N         15.9960   15.9420    7.3520 N.3   111  ILE111     -0.1245
    185  CA        16.0560   16.0050    8.8170 C.3   111  ILE111      0.1561
    186  C         16.0280   14.5330    9.3220 C.2   111  ILE111      0.2260
    187  O         16.8900   14.1930   10.1590 O.2   111  ILE111     -0.2867
    188  CB        14.9220   16.8600    9.3790 C.3   111  ILE111      0.0252
    189  CG1       15.1880   18.3630    9.1790 C.3   111  ILE111      0.0019
    190  CG2       14.5910   16.5760   10.8850 C.3   111  ILE111      0.0019
    191  CD1       14.1750   19.4210    9.5490 C.3   111  ILE111      0.0001
    192  N          6.4890   17.0250   11.4740 N.3   135  LEU135     -0.1245
    193  CA         7.1180   17.7350   10.3010 C.3   135  LEU135      0.1561
    194  C          6.0070   17.7350    9.2700 C.2   135  LEU135      0.2260
    195  O          5.8310   18.7030    8.4760 O.2   135  LEU135     -0.2867
    196  CB         8.4470   17.0350   10.0880 C.3   135  LEU135      0.0270
    197  CG         9.8060   17.2820   10.5350 C.3   135  LEU135      0.0019
    198  CD1       10.9240   16.4480    9.8090 C.3   135  LEU135      0.0001
    199  CD2       10.2840   18.7700   10.2500 C.3   135  LEU135      0.0001
    200  N          3.4570   20.5970   10.1440 N.3   138  PHE138     -0.1241
    201  CA         4.2330   21.7240    9.8540 C.3   138  PHE138      0.1605
    202  C          4.0140   22.1180    8.3760 C.2   138  PHE138      0.2264
    203  O          3.7160   23.3240    8.1400 O.2   138  PHE138     -0.2867
    204  CB         5.6870   21.4210   10.0850 C.3   138  PHE138      0.0534
    205  CG         6.6590   22.5040    9.6370 C.ar  138  PHE138     -0.0203
    206  CD1        6.6790   23.7560   10.2050 C.ar  138  PHE138     -0.0042
    207  CD2        7.5330   22.1940    8.6040 C.ar  138  PHE138     -0.0042
    208  CE1        7.5870   24.6440    9.7140 C.ar  138  PHE138     -0.0003
    209  CE2        8.4560   23.1340    8.0710 C.ar  138  PHE138     -0.0003
    210  CZ         8.4930   24.3230    8.6430 C.ar  138  PHE138     -0.0000
@<TRIPOS>BOND
     1   167   166    1
     2    23    22    1
     3    23    24    1
     4    22    21    1
     5   166   164   ar
     6   166   165   ar
     7    42    41   ar
     8   164   162   ar
     9     9    10    1
    10    16    17    1
    11    21    20    1
    12    41    40    1
    13    41    43   ar
    14   165   163   ar
    15    17    20    1
    16    17    18    1
    17    40    37    1
    18   162   161   ar
    19    10    11    1
    20    10    13    1
    21    28    27    2
    22    11    12    2
    23    37    36    1
    24    37    38    1
    25    18    25   am
    26    18    19    2
    27   141   140    1
    28   163   161   ar
    29    39    38    2
    30    25    26    1
    31    15    13    1
    32   161   160    1
    33    27    36   am
    34    27    26    1
    35   132   131    2
    36    13    14    1
    37   148   149    1
    38    38    44   am
    39   150   149    1
    40   150   151    1
    41   140   139    1
    42   149   152    1
    43   155   153    1
    44    26    29    1
    45   131   130    1
    46   131   138   am
    47   160   157    1
    48   139   138    1
    49   139   142    1
    50   156   157    1
    51     4     3    2
    52   153   152    1
    53    44    45    1
    54   130   129    1
    55   130   133    1
    56   152   154    1
    57    29    30    1
    58   157   158    1
    59   122   121    2
    60   142   143    1
    61    45    46    1
    62    45    48    1
    63    32    30   ar
    64    32    34   ar
    65    46    47    1
    66     3     2    1
    67    30    31   ar
    68   133   134    1
    69   134   135    1
    70    34    35   ar
    71   121   120    1
    72   158   168   am
    73   158   159    2
    74     7     6    1
    75   144   143   ar
    76   144   146   ar
    77   143   145   ar
    78   136   137    1
    79   136   135    1
    80    48    49    1
    81     6     5    1
    82     6     8    1
    83   168   169    1
    84     2     5    1
    85     2     1    1
    86    31    33   ar
    87   116   115    2
    88    35    33   ar
    89   120   123    1
    90   120   119    1
    91   146   147   ar
    92   145   147   ar
    93    49    50    1
    94   123   124    1
    95   115   119   am
    96   115   114    1
    97   169   170    1
    98   169   172    1
    99    50    51    1
   100   170   171    2
   101   172   173    1
   102   176   177    1
   103   173   175    1
   104   173   174    1
   105   126   124   ar
   106   126   128   ar
   107   124   125   ar
   108   114   113    1
   109   114   117    1
   110    51    52    1
   111   177   180    1
   112   177   178    1
   113   180   182    1
   114   180   181    1
   115   117   118    1
   116   125   127   ar
   117   128   127   ar
   118   108   107    2
   119   178   179    2
   120    62    60   ar
   121    62    61   ar
   122    60    58   ar
   123   183   181    1
   124    61    59   ar
   125   107   106    1
   126    58    59   ar
   127    58    57    1
   128    57    54    1
   129   101   100    2
   130   106   105    1
   131   106   109    1
   132   184   185    1
   133   100   105   am
   134   100    99    1
   135    76    74    1
   136   209   207   ar
   137   209   210   ar
   138   203   202    2
   139   109   110    1
   140    54    55    1
   141    54    53    1
   142   202   201    1
   143   112   110    1
   144   195   194    2
   145   207   205   ar
   146   210   208   ar
   147    75    74    1
   148    99    98    1
   149    99   102    1
   150    55    56    1
   151   185   186    1
   152   185   188    1
   153   189   188    1
   154   189   191    1
   155    74    71    1
   156   110   111    1
   157    98   104    1
   158   194   193    1
   159   186   187    2
   160   188   190    1
   161   205   204    1
   162   205   206   ar
   163   208   206   ar
   164   198   197    1
   165   201   204    1
   166   201   200    1
   167   102   103    1
   168   196   193    1
   169   196   197    1
   170   199   197    1
   171   193   192    1
   172    71    70    1
   173    71    72    1
   174    68    67    1
   175    88    87    1
   176   104   103    1
   177    70    65   am
   178    67    69    1
   179    67    64    1
   180    72    73    2
   181    65    64    1
   182    65    66    2
   183    64    63    1
   184    87    89    1
   185    87    86    1
   186    81    78    1
   187    97    95    1
   188    86    83    1
   189    82    83    1
   190    82    79   am
   191    83    84    1
   192    78    79    1
   193    78    77    1
   194    79    80    2
   195    95    94    1
   196    96    94    1
   197    94    91    1
   198    84    85    2
   199    91    90    1
   200    91    92    1
   201    92    93    2
