@<TRIPOS>MOLECULE
tmp/1ymgA00.pdb
 92 94 0 0 0
SMALL
GASTEIGER

@<TRIPOS>ATOM
      1  N        -19.6760   32.4520   59.5430 N.3   121  VAL121     -0.1245
      2  CA       -19.0150   31.9850   58.3260 C.3   121  VAL121      0.1561
      3  C        -19.8640   32.3660   57.1160 C.2   121  VAL121      0.2260
      4  O        -19.3560   32.4860   55.9990 O.2   121  VAL121     -0.2867
      5  CB       -18.7800   30.4440   58.3190 C.3   121  VAL121      0.0252
      6  CG1      -18.1940   29.9930   59.6470 C.3   121  VAL121      0.0019
      7  CG2      -20.0570   29.7200   58.0110 C.3   121  VAL121      0.0019
      8  N         -7.0960   23.8330   59.2190 N.3   192  PHE192     -0.1227
      9  CA        -8.0680   24.0840   58.1700 C.3   192  PHE192      0.1736
     10  C         -9.3990   24.5890   58.7040 C.2   192  PHE192      0.2596
     11  O        -10.4410   24.4360   58.0710 O.2   192  PHE192     -0.2718
     12  CB        -8.2610   22.8310   57.3150 C.3   192  PHE192      0.0547
     13  CG        -7.0960   22.5440   56.4190 C.ar  192  PHE192     -0.0202
     14  CD1       -5.9700   21.8830   56.9070 C.ar  192  PHE192     -0.0042
     15  CD2       -7.0930   22.9960   55.0980 C.ar  192  PHE192     -0.0042
     16  CE1       -4.8590   21.6810   56.0920 C.ar  192  PHE192     -0.0003
     17  CE2       -5.9840   22.7980   54.2750 C.ar  192  PHE192     -0.0003
     18  CZ        -4.8680   22.1420   54.7700 C.ar  192  PHE192     -0.0000
     19  N         -9.3490   25.2130   59.8700 N.am  193  THR193     -0.1939
     20  CA       -10.5470   25.7600   60.4800 C.3   193  THR193      0.2028
     21  C        -11.1260   26.8490   59.5630 C.2   193  THR193      0.2642
     22  O        -10.4050   27.7360   59.1040 O.2   193  THR193     -0.2714
     23  CB       -10.2150   26.3630   61.8520 C.3   193  THR193      0.1808
     24  OG1      -11.4170   26.8050   62.4910 O.3   193  THR193     -0.2208
     25  CG2       -9.2650   27.5540   61.6850 C.3   193  THR193      0.0379
     26  N        -12.4250   26.7640   59.2890 N.am  194  ASN194     -0.1957
     27  CA       -13.1210   27.7220   58.4310 C.3   194  ASN194      0.1819
     28  C        -12.5110   27.8940   57.0350 C.2   194  ASN194      0.2621
     29  O        -12.9090   28.7880   56.2890 O.2   194  ASN194     -0.2715
     30  CB       -13.1990   29.0890   59.1180 C.3   194  ASN194      0.1195
     31  CG       -14.0760   29.0770   60.3590 C.2   194  ASN194      0.2630
     32  OD1      -15.1080   28.4100   60.3920 O.2   194  ASN194     -0.2716
     33  ND2      -13.6800   29.8310   61.3770 N.am  194  ASN194     -0.0877
     34  N        -11.5730   27.0260   56.6700 N.am  195  HIS195     -0.1959
     35  CA       -10.9040   27.1340   55.3750 C.3   195  HIS195      0.1787
     36  C        -11.8580   27.1540   54.1890 C.2   195  HIS195      0.2620
     37  O        -11.5250   27.6810   53.1250 O.2   195  HIS195     -0.2715
     38  CB        -9.8890   25.9950   55.1900 C.3   195  HIS195      0.0785
     39  CG        -8.8490   26.2850   54.1490 C.ar  195  HIS195      0.0821
     40  ND1       -8.5160   25.3930   53.1540 N.ar  195  HIS195     -0.2267
     41  CD2       -8.0800   27.3800   53.9410 C.ar  195  HIS195      0.1154
     42  CE1       -7.5890   25.9240   52.3780 C.ar  195  HIS195      0.1986
     43  NE2       -7.3070   27.1300   52.8330 N.ar  195  HIS195     -0.2212
     44  N        -13.0350   26.5650   54.3770 N.am  196  TRP196     -0.1960
     45  CA       -14.0660   26.4980   53.3440 C.3   196  TRP196      0.1771
     46  C        -14.4230   27.8900   52.8170 C.2   196  TRP196      0.2619
     47  O        -14.6740   28.0730   51.6240 O.2   196  TRP196     -0.2715
     48  CB       -15.3020   25.7860   53.9210 C.3   196  TRP196      0.0590
     49  CG       -16.6230   26.1860   53.3250 C.ar  196  TRP196      0.0006
     50  CD1      -17.4020   27.2550   53.6850 C.ar  196  TRP196      0.0946
     51  CD2      -17.3130   25.5310   52.2560 C.ar  196  TRP196      0.0152
     52  NE1      -18.5320   27.3030   52.9040 N.ar  196  TRP196     -0.2442
     53  CE2      -18.5020   26.2570   52.0190 C.ar  196  TRP196      0.0810
     54  CE3      -17.0390   24.4010   51.4730 C.ar  196  TRP196      0.0012
     55  CZ2      -19.4190   25.8890   51.0280 C.ar  196  TRP196      0.0191
     56  CZ3      -17.9500   24.0340   50.4880 C.ar  196  TRP196      0.0001
     57  CH2      -19.1260   24.7780   50.2740 C.ar  196  TRP196      0.0015
     58  N        -14.4360   28.8660   53.7170 N.am  197  VAL197     -0.1977
     59  CA       -14.7500   30.2430   53.3580 C.3   197  VAL197      0.1596
     60  C        -13.8100   30.7870   52.2880 C.2   197  VAL197      0.2287
     61  O        -14.2370   31.4320   51.3260 O.2   197  VAL197     -0.2864
     62  CB       -14.6260   31.1830   54.5790 C.3   197  VAL197      0.0276
     63  CG1      -14.9350   32.6230   54.1600 C.3   197  VAL197      0.0022
     64  CG2      -15.5570   30.7290   55.6920 C.3   197  VAL197      0.0022
     65  N        -12.2040   29.3440   49.9430 N.3   199  TRP199     -0.1227
     66  CA       -12.2210   28.6740   48.6440 C.3   199  TRP199      0.1737
     67  C        -13.5640   29.0320   48.0170 C.2   199  TRP199      0.2595
     68  O        -13.6440   29.3990   46.8440 O.2   199  TRP199     -0.2718
     69  CB       -12.1120   27.1470   48.7810 C.3   199  TRP199      0.0564
     70  CG       -10.7140   26.6610   48.9190 C.ar  199  TRP199      0.0003
     71  CD1       -9.9750   26.6060   50.0630 C.ar  199  TRP199      0.0946
     72  CD2       -9.8410   26.2670   47.8560 C.ar  199  TRP199      0.0152
     73  NE1       -8.6930   26.2100   49.7800 N.ar  199  TRP199     -0.2442
     74  CE2       -8.5810   25.9950   48.4310 C.ar  199  TRP199      0.0810
     75  CE3       -9.9980   26.1230   46.4710 C.ar  199  TRP199      0.0012
     76  CZ2       -7.4810   25.5850   47.6680 C.ar  199  TRP199      0.0191
     77  CZ3       -8.9020   25.7190   45.7140 C.ar  199  TRP199      0.0001
     78  CH2       -7.6610   25.4550   46.3150 C.ar  199  TRP199      0.0015
     79  N        -14.6110   28.9490   48.8310 N.am  200  VAL200     -0.1980
     80  CA       -15.9720   29.2430   48.4030 C.3   200  VAL200      0.1595
     81  C        -16.2490   30.7040   48.0410 C.2   200  VAL200      0.2287
     82  O        -16.8030   30.9880   46.9760 O.2   200  VAL200     -0.2864
     83  CB       -16.9660   28.7750   49.4900 C.3   200  VAL200      0.0276
     84  CG1      -18.4000   29.1540   49.1200 C.3   200  VAL200      0.0022
     85  CG2      -16.8490   27.2690   49.6350 C.3   200  VAL200      0.0022
     86  N        -14.1400   31.7700   44.6960 N.3   203  VAL203     -0.1245
     87  CA       -14.6410   31.0510   43.5330 C.3   203  VAL203      0.1561
     88  C        -15.9960   31.6150   43.1110 C.2   203  VAL203      0.2260
     89  O        -16.2020   31.9290   41.9390 O.2   203  VAL203     -0.2867
     90  CB       -14.7690   29.5260   43.8130 C.3   203  VAL203      0.0252
     91  CG1      -15.4460   28.8310   42.6360 C.3   203  VAL203      0.0019
     92  CG2      -13.3890   28.9180   44.0380 C.3   203  VAL203      0.0019
@<TRIPOS>BOND
     1    89    88    2
     2    91    90    1
     3    88    87    1
     4    87    90    1
     5    87    86    1
     6    90    92    1
     7    77    78   ar
     8    77    75   ar
     9    78    76   ar
    10    75    72   ar
    11    68    67    2
    12    82    81    2
    13    76    74   ar
    14    72    74   ar
    15    72    70   ar
    16    67    66    1
    17    67    79   am
    18    81    80    1
    19    80    79    1
    20    80    83    1
    21    74    73   ar
    22    66    69    1
    23    66    65    1
    24    69    70    1
    25    70    71   ar
    26    84    83    1
    27    83    85    1
    28    73    71   ar
    29    57    56   ar
    30    57    55   ar
    31    56    54   ar
    32    55    53   ar
    33    61    60    2
    34    54    51   ar
    35    47    46    2
    36    53    51   ar
    37    53    52   ar
    38    51    49   ar
    39    60    59    1
    40    42    43   ar
    41    42    40   ar
    42    46    45    1
    43    46    58   am
    44    43    41   ar
    45    52    50   ar
    46    37    36    2
    47    40    39   ar
    48    49    50   ar
    49    49    48    1
    50    45    48    1
    51    45    44    1
    52    59    58    1
    53    59    62    1
    54    41    39   ar
    55    39    38    1
    56    63    62    1
    57    36    44   am
    58    36    35    1
    59    17    18   ar
    60    17    15   ar
    61    62    64    1
    62    18    16   ar
    63    15    13   ar
    64    38    35    1
    65    35    34    1
    66     4     3    2
    67    16    14   ar
    68    29    28    2
    69    13    14   ar
    70    13    12    1
    71    34    28   am
    72    28    27    1
    73     3     2    1
    74    12     9    1
    75     7     5    1
    76    11    10    2
    77     9    10    1
    78     9     8    1
    79     5     2    1
    80     5     6    1
    81     2     1    1
    82    27    30    1
    83    27    26    1
    84    10    19   am
    85    22    21    2
    86    30    31    1
    87    26    21   am
    88    21    20    1
    89    19    20    1
    90    31    32    2
    91    31    33   am
    92    20    23    1
    93    25    23    1
    94    23    24    1
