@<TRIPOS>MOLECULE
tmp/1ymsA00.pdb
 89 83 0 0 0
SMALL
GASTEIGER

@<TRIPOS>ATOM
      1  N         20.1860   58.3240    8.2460 N.3    45  SER45      -0.1217
      2  CA        19.7040   57.5120    7.1310 C.3    45  SER45       0.1889
      3  C         18.3020   57.7540    6.6030 C.2    45  SER45       0.2288
      4  O         17.9220   57.1440    5.5950 O.2    45  SER45      -0.2866
      5  CB        19.8900   56.0180    7.4260 C.3    45  SER45       0.2089
      6  OG        21.2920   55.7250    7.4590 O.3    45  SER45      -0.2183
      7  N         18.0910   58.6730    2.9910 N.3    48  LYS48      -0.1245
      8  CA        18.1870   57.7050    1.8990 C.3    48  LYS48       0.1561
      9  C         16.9210   57.6300    1.0710 C.2    48  LYS48       0.2260
     10  O         16.9580   57.2590   -0.0990 O.2    48  LYS48      -0.2867
     11  CB        18.5880   56.3290    2.4560 C.3    48  LYS48       0.0271
     12  CG        19.9930   56.3730    3.0930 C.3    48  LYS48       0.0035
     13  CD        20.3790   55.0570    3.7420 C.3    48  LYS48       0.0206
     14  CE        21.7620   55.1560    4.3610 C.3    48  LYS48       0.1093
     15  NZ        22.1440   53.9270    5.1000 N.3    48  LYS48      -0.1314
     16  N         31.4270   52.2220    7.0120 N.3    79  ASN79      -0.1225
     17  CA        31.2070   51.6550    8.3450 C.3    79  ASN79       0.1785
     18  C         30.1300   50.5930    8.4630 C.2    79  ASN79       0.2597
     19  O         30.1440   49.7850    9.4020 O.2    79  ASN79      -0.2718
     20  CB        30.8610   52.7700    9.3240 C.3    79  ASN79       0.1169
     21  CG        29.5190   53.3870    9.0180 C.2    79  ASN79       0.2627
     22  OD1       29.2190   53.6690    7.8520 O.2    79  ASN79      -0.2716
     23  ND2       28.6980   53.5920   10.0500 N.am   79  ASN79      -0.0877
     24  N         29.1910   50.5920    7.5270 N.am   80  TYR80      -0.1976
     25  CA        28.0940   49.6430    7.5950 C.3    80  TYR80       0.1639
     26  C         27.6320   49.3170    6.1820 C.2    80  TYR80       0.2290
     27  O         26.9920   50.1390    5.5400 O.2    80  TYR80      -0.2864
     28  CB        26.9590   50.2750    8.3930 C.3    80  TYR80       0.0560
     29  CG        25.8460   49.3180    8.6760 C.ar   80  TYR80      -0.0198
     30  CD1       24.5790   49.5120    8.1290 C.ar   80  TYR80      -0.0009
     31  CD2       26.0670   48.1970    9.4660 C.ar   80  TYR80      -0.0009
     32  CE1       23.5540   48.6040    8.3640 C.ar   80  TYR80       0.0417
     33  CE2       25.0610   47.2880    9.7070 C.ar   80  TYR80       0.0417
     34  CZ        23.8120   47.4920    9.1570 C.ar   80  TYR80       0.1957
     35  OH        22.8370   46.5620    9.4020 O.3    80  TYR80      -0.2866
     36  N         19.6450   49.7900    5.1980 N.3   105  SER105     -0.1217
     37  CA        20.3920   51.0120    5.5120 C.3   105  SER105      0.1889
     38  C         21.8820   50.8470    5.1750 C.2   105  SER105      0.2288
     39  O         22.7630   51.3360    5.8890 O.2   105  SER105     -0.2866
     40  CB        20.2060   51.4180    6.9860 C.3   105  SER105      0.2089
     41  OG        20.2740   52.8430    7.0930 O.3   105  SER105     -0.2183
     42  N         25.2610   51.6920    3.8650 N.3   107  ASN107     -0.1240
     43  CA        25.8690   52.9970    3.5850 C.3   107  ASN107      0.1653
     44  C         26.6520   53.0620    2.2800 C.2   107  ASN107      0.2266
     45  O         26.7040   54.1090    1.6420 O.2   107  ASN107     -0.2867
     46  CB        26.7450   53.4470    4.7530 C.3   107  ASN107      0.1155
     47  CG        25.9270   54.0120    5.8870 C.2   107  ASN107      0.2627
     48  OD1       24.7880   54.4400    5.6760 O.2   107  ASN107     -0.2716
     49  ND2       26.4970   54.0340    7.1020 N.am  107  ASN107     -0.0877
     50  N         30.1860   57.8990    5.7460 N.3   142  PRO142     -0.2116
     51  CA        29.3480   57.9570    6.9420 C.3   142  PRO142      0.1372
     52  C         29.2840   59.2990    7.6510 C.2   142  PRO142      0.2244
     53  O         28.5380   59.4380    8.6250 O.2   142  PRO142     -0.2868
     54  CB        29.9860   56.9070    7.8450 C.3   142  PRO142      0.0268
     55  CG        31.4310   57.1420    7.5990 C.3   142  PRO142      0.0207
     56  CD        31.5380   57.4160    6.0890 C.3   142  PRO142      0.0892
     57  N         26.2610   61.5090    9.1710 N.3   145  ASN145     -0.1225
     58  CA        25.5920   61.1090   10.4210 C.3   145  ASN145      0.1785
     59  C         26.2740   61.6580   11.6880 C.2   145  ASN145      0.2597
     60  O         25.9720   61.2110   12.7970 O.2   145  ASN145     -0.2718
     61  CB        25.5290   59.5740   10.5400 C.3   145  ASN145      0.1169
     62  CG        24.9520   58.9000    9.2980 C.2   145  ASN145      0.2627
     63  OD1       23.7530   59.0240    9.0040 O.2   145  ASN145     -0.2716
     64  ND2       25.8040   58.1850    8.5580 N.am  145  ASN145     -0.0877
     65  N         27.1880   62.6170   11.5520 N.am  146  THR146     -0.1953
     66  CA        27.8400   63.1470   12.7560 C.3   146  THR146      0.1897
     67  C         26.8300   63.7720   13.7230 C.2   146  THR146      0.2313
     68  O         27.0580   63.7840   14.9380 O.2   146  THR146     -0.2863
     69  CB        28.9590   64.1480   12.4010 C.3   146  THR146      0.1794
     70  OG1       28.4560   65.1400   11.4990 O.3   146  THR146     -0.2208
     71  CG2       30.1440   63.4040   11.7590 C.3   146  THR146      0.0378
     72  N         20.0230   56.5510   12.2560 N.3   212  SER212     -0.1202
     73  CA        20.8000   56.4890   13.4900 C.3   212  SER212      0.2020
     74  C         22.1190   57.2150   13.2650 C.2   212  SER212      0.2619
     75  O         22.6470   57.2150   12.1550 O.2   212  SER212     -0.2717
     76  CB        21.0660   55.0300   13.8750 C.3   212  SER212      0.2103
     77  OG        21.6560   54.3290   12.7840 O.3   212  SER212     -0.2182
     78  N         22.6360   57.8570   14.3060 N.am  213  GLY213     -0.1942
     79  CA        23.8990   58.5620   14.1630 C.3   213  GLY213      0.2014
     80  C         24.4740   58.8940   15.5150 C.2   213  GLY213      0.2638
     81  O         24.0250   58.3420   16.5220 O.2   213  GLY213     -0.2714
     82  N         25.4720   59.7780   15.5400 N.am  214  ASP214     -0.1971
     83  CA        26.0760   60.1740   16.8050 C.3   214  ASP214      0.1709
     84  C         25.0300   60.9900   17.5830 C.2   214  ASP214      0.2293
     85  O         23.9340   61.2610   17.0740 O.2   214  ASP214     -0.2864
     86  CB        27.3700   60.9850   16.5760 C.3   214  ASP214      0.1436
     87  CG        28.6370   60.0960   16.4340 C.2   214  ASP214      0.3671
     88  OD1       28.6030   58.8950   16.8190 O.co2 214  ASP214     -0.2456
     89  OD2       29.6800   60.6070   15.9520 O.co2 214  ASP214     -0.2456
@<TRIPOS>BOND
     1    10     9    2
     2     9     8    1
     3    45    44    2
     4     8    11    1
     5     8     7    1
     6    44    43    1
     7    11    12    1
     8    12    13    1
     9    43    42    1
    10    43    46    1
    11    13    14    1
    12    14    15    1
    13    46    47    1
    14    38    37    1
    15    38    39    2
    16    36    37    1
    17    37    40    1
    18    27    26    2
    19     4     3    2
    20    48    47    2
    21    50    56    1
    22    50    51    1
    23    47    49   am
    24    56    55    1
    25    26    25    1
    26     3     2    1
    27    51    52    1
    28    51    54    1
    29    40    41    1
    30    16    17    1
    31     2     5    1
    32     2     1    1
    33     5     6    1
    34    24    25    1
    35    24    18   am
    36    25    28    1
    37    55    54    1
    38    52    53    2
    39    22    21    2
    40    30    32   ar
    41    30    29   ar
    42    17    18    1
    43    17    20    1
    44    32    34   ar
    45    28    29    1
    46    18    19    2
    47    64    62   am
    48    29    31   ar
    49    63    62    2
    50    21    20    1
    51    21    23   am
    52    34    35    1
    53    34    33   ar
    54    57    58    1
    55    62    61    1
    56    31    33   ar
    57    58    61    1
    58    58    59    1
    59    70    69    1
    60    65    59   am
    61    65    66    1
    62    59    60    2
    63    71    69    1
    64    75    74    2
    65    72    73    1
    66    69    66    1
    67    66    67    1
    68    77    76    1
    69    74    73    1
    70    74    78   am
    71    73    76    1
    72    67    68    2
    73    79    78    1
    74    79    80    1
    75    80    82   am
    76    80    81    2
    77    82    83    1
    78    89    87   ar
    79    87    86    1
    80    87    88   ar
    81    86    83    1
    82    83    84    1
    83    85    84    2
