@<TRIPOS>MOLECULE
tmp/1ymxB00.pdb
 142 134 0 0 0
SMALL
GASTEIGER

@<TRIPOS>ATOM
      1  N         26.2530   83.2150   18.2050 N.3    42  CYS42      -0.1221
      2  CA        25.5970   84.3320   17.5410 C.3    42  CYS42       0.1808
      3  C         26.2200   84.4980   16.1450 C.2    42  CYS42       0.2601
      4  O         26.5520   83.5010   15.5130 O.2    42  CYS42      -0.2717
      5  CB        25.6880   85.6070   18.3850 C.3    42  CYS42       0.0970
      6  SG        24.7260   85.4320   19.9470 S.3    42  CYS42      -0.0800
      7  N         26.3890   85.7250   15.6690 N.am   43  SER43      -0.1952
      8  CA        26.9030   85.9350   14.3120 C.3    43  SER43       0.1924
      9  C         28.2690   85.3550   13.9690 C.2    43  SER43       0.2314
     10  O         28.6370   85.3210   12.7920 O.2    43  SER43      -0.2863
     11  CB        26.9060   87.4250   13.9640 C.3    43  SER43       0.2116
     12  OG        25.5770   87.8900   13.7510 O.3    43  SER43      -0.2180
     13  N         28.4300   82.6370   11.3210 N.3    46  LYS46      -0.1245
     14  CA        28.4030   82.9180    9.8880 C.3    46  LYS46       0.1561
     15  C         29.7060   82.4770    9.2040 C.2    46  LYS46       0.2260
     16  O         29.7140   82.1620    8.0210 O.2    46  LYS46      -0.2867
     17  CB        28.1220   84.4170    9.6330 C.3    46  LYS46       0.0271
     18  CG        26.7070   84.8820   10.0850 C.3    46  LYS46       0.0035
     19  CD        26.3830   86.2870    9.5740 C.3    46  LYS46       0.0206
     20  CE        24.9300   86.7020    9.8320 C.3    46  LYS46       0.1093
     21  NZ        24.7180   87.1250   11.2330 N.3    46  LYS46      -0.1314
     22  N         15.4480   90.1730   10.8010 N.3    77  ASN77      -0.1225
     23  CA        15.6680   91.3710   11.6180 C.3    77  ASN77       0.1785
     24  C         16.7180   92.3840   11.2080 C.2    77  ASN77       0.2597
     25  O         16.6340   93.5490   11.6010 O.2    77  ASN77      -0.2718
     26  CB        15.9630   90.9600   13.0580 C.3    77  ASN77       0.1169
     27  CG        17.3340   90.3230   13.2060 C.2    77  ASN77       0.2627
     28  OD1       17.6940   89.4240   12.4470 O.2    77  ASN77      -0.2716
     29  ND2       18.1010   90.7870   14.1800 N.am   77  ASN77      -0.0877
     30  N         17.7190   91.9560   10.4540 N.am   78  TYR78      -0.1976
     31  CA        18.7780   92.8630   10.0400 C.3    78  TYR78       0.1639
     32  C         19.2750   92.3840    8.6840 C.2    78  TYR78       0.2290
     33  O         19.9400   91.3580    8.5920 O.2    78  TYR78      -0.2864
     34  CB        19.8990   92.8270   11.0620 C.3    78  TYR78       0.0560
     35  CG        21.0080   93.7910   10.7550 C.ar   78  TYR78      -0.0198
     36  CD1       22.2570   93.3370   10.3300 C.ar   78  TYR78      -0.0009
     37  CD2       20.8010   95.1610   10.8720 C.ar   78  TYR78      -0.0009
     38  CE1       23.2780   94.2420   10.0290 C.ar   78  TYR78       0.0417
     39  CE2       21.8070   96.0680   10.5760 C.ar   78  TYR78       0.0417
     40  CZ        23.0390   95.6030   10.1560 C.ar   78  TYR78       0.1957
     41  OH        24.0240   96.5080    9.8620 O.3    78  TYR78      -0.2866
     42  N         27.2300   91.1240    8.3150 N.3   103  SER103     -0.1217
     43  CA        26.4210   90.3210    9.2270 C.3   103  SER103      0.1889
     44  C         24.9370   90.3180    8.8440 C.2   103  SER103      0.2288
     45  O         24.0580   90.2950    9.7160 O.2   103  SER103     -0.2866
     46  CB        26.5710   90.7980   10.6680 C.3   103  SER103      0.2089
     47  OG        26.6690   89.6710   11.5230 O.3   103  SER103     -0.2183
     48  N         21.5280   88.9830    8.0170 N.3   105  ASN105     -0.1240
     49  CA        20.8530   87.7500    8.4130 C.3   105  ASN105      0.1653
     50  C         20.0420   87.0390    7.3530 C.2   105  ASN105      0.2266
     51  O         19.8350   85.8240    7.4380 O.2   105  ASN105     -0.2867
     52  CB        20.0230   88.0140    9.6670 C.3   105  ASN105      0.1155
     53  CG        20.9070   88.2820   10.8480 C.2   105  ASN105      0.2627
     54  OD1       22.0310   87.7630   10.9030 O.2   105  ASN105     -0.2716
     55  ND2       20.4390   89.0910   11.7900 N.am  105  ASN105     -0.0877
     56  N         18.4510   82.1530   11.4190 N.3   139  GLU139     -0.1231
     57  CA        18.3930   83.5290   11.9100 C.3   139  GLU139      0.1684
     58  C         16.8930   83.8510   11.9640 C.2   139  GLU139      0.2434
     59  O         16.1540   83.5350   11.0340 O.2   139  GLU139     -0.2733
     60  CB        19.0690   84.4810   10.9240 C.3   139  GLU139      0.0402
     61  CG        20.5590   84.2090   10.6890 C.3   139  GLU139      0.1161
     62  CD        21.4340   84.5170   11.9010 C.2   139  GLU139      0.3649
     63  OE1       22.6760   84.4200   11.7740 O.co2 139  GLU139     -0.2457
     64  OE2       20.8910   84.8470   12.9730 O.co2 139  GLU139     -0.2457
     65  N         16.4490   84.5820   12.9940 N.am  140  PRO140     -0.2729
     66  CA        17.2470   85.1380   14.0800 C.3   140  PRO140      0.1401
     67  C         17.2730   84.3430   15.3780 C.2   140  PRO140      0.2269
     68  O         17.9650   84.7320   16.3080 O.2   140  PRO140     -0.2865
     69  CB        16.6010   86.5020   14.2890 C.3   140  PRO140      0.0296
     70  CG        15.1110   86.1600   14.1500 C.3   140  PRO140      0.0237
     71  CD        15.0700   85.1220   13.0110 C.3   140  PRO140      0.0939
     72  N         20.2920   83.1850   17.9450 N.3   143  ASN143     -0.1225
     73  CA        20.9240   84.1620   18.8290 C.3   143  ASN143      0.1785
     74  C         20.2430   84.3790   20.1780 C.2   143  ASN143      0.2597
     75  O         20.5550   85.3590   20.8610 O.2   143  ASN143     -0.2718
     76  CB        21.0130   85.5090   18.1080 C.3   143  ASN143      0.1169
     77  CG        21.6680   85.3960   16.7480 C.2   143  ASN143      0.2627
     78  OD1       22.8980   85.3610   16.6370 O.2   143  ASN143     -0.2716
     79  ND2       20.8480   85.3150   15.7000 N.am  143  ASN143     -0.0877
     80  N         19.3170   83.4950   20.5690 N.am  144  THR144     -0.1953
     81  CA        18.6200   83.6620   21.8590 C.3   144  THR144      0.1897
     82  C         19.5750   83.6410   23.0510 C.2   144  THR144      0.2313
     83  O         19.3160   84.2710   24.0810 O.2   144  THR144     -0.2863
     84  CB        17.5450   82.5920   22.0700 C.3   144  THR144      0.1794
     85  OG1       18.1180   81.2850   21.9170 O.3   144  THR144     -0.2208
     86  CG2       16.4190   82.7900   21.0630 C.3   144  THR144      0.0378
     87  N         32.3470   95.4580   10.6200 N.3   189  THR189     -0.1218
     88  CA        31.8320   95.5680   11.9870 C.3   189  THR189      0.1862
     89  C         32.7840   95.3740   13.1590 C.2   189  THR189      0.2287
     90  O         32.3380   95.4050   14.3090 O.2   189  THR189     -0.2866
     91  CB        30.7040   94.5370   12.2150 C.3   189  THR189      0.1770
     92  OG1       31.2710   93.2190   12.1880 O.3   189  THR189     -0.2211
     93  CG2       29.6260   94.6400   11.1330 C.3   189  THR189      0.0375
     94  N         35.1740   88.3260   12.6170 N.3   207  LYS207     -0.1231
     95  CA        33.7190   88.2570   12.4740 C.3   207  LYS207      0.1693
     96  C         33.1590   88.4630   13.8750 C.2   207  LYS207      0.2593
     97  O         33.4730   87.7030   14.7830 O.2   207  LYS207     -0.2718
     98  CB        33.2300   86.8990   11.9540 C.3   207  LYS207      0.0285
     99  CG        31.6850   86.8580   11.8220 C.3   207  LYS207      0.0035
    100  CD        31.1650   87.8060   10.7080 C.3   207  LYS207      0.0206
    101  CE        29.6370   88.0280   10.7740 C.3   207  LYS207      0.1093
    102  NZ        29.2850   89.0710   11.8080 N.3   207  LYS207     -0.1314
    103  N         32.3360   89.4870   14.0330 N.am  208  THR208     -0.1939
    104  CA        31.7190   89.8200   15.3150 C.3   208  THR208      0.2028
    105  C         30.3710   89.1150   15.5030 C.2   208  THR208      0.2643
    106  O         29.8330   88.5080   14.5780 O.2   208  THR208     -0.2714
    107  CB        31.4360   91.3310   15.4040 C.3   208  THR208      0.1808
    108  OG1       30.7650   91.7440   14.2040 O.3   208  THR208     -0.2208
    109  CG2       32.7250   92.1250   15.5450 C.3   208  THR208      0.0379
    110  N         29.8290   89.2060   16.7120 N.am  209  GLY209     -0.1939
    111  CA        28.5190   88.6450   16.9660 C.3   209  GLY209      0.2014
    112  C         27.8910   89.3210   18.1760 C.2   209  GLY209      0.2640
    113  O         28.5990   89.7670   19.0720 O.2   209  GLY209     -0.2714
    114  N         26.5650   89.4010   18.1880 N.am  210  SER210     -0.1935
    115  CA        25.8300   89.9950   19.3010 C.3   210  SER210      0.2055
    116  C         24.4780   89.2980   19.3820 C.2   210  SER210      0.2644
    117  O         23.9080   88.9160   18.3610 O.2   210  SER210     -0.2714
    118  CB        25.6450   91.5010   19.0880 C.3   210  SER210      0.2130
    119  OG        25.0880   91.7810   17.8140 O.3   210  SER210     -0.2179
    120  N         23.9710   89.1090   20.5920 N.am  211  GLY211     -0.1939
    121  CA        22.6830   88.4440   20.7300 C.3   211  GLY211      0.2014
    122  C         22.0500   88.8330   22.0380 C.2   211  GLY211      0.2638
    123  O         22.5060   89.7780   22.6680 O.2   211  GLY211     -0.2714
    124  N         21.0070   88.1230   22.4460 N.am  212  ASP212     -0.1971
    125  CA        20.3770   88.4300   23.7290 C.3   212  ASP212      0.1709
    126  C         21.3570   88.1130   24.8610 C.2   212  ASP212      0.2293
    127  O         22.4480   87.5610   24.6250 O.2   212  ASP212     -0.2864
    128  CB        19.0780   87.6430   23.9040 C.3   212  ASP212      0.1436
    129  CG        17.9930   88.0840   22.9330 C.2   212  ASP212      0.3671
    130  OD1       18.0120   89.2600   22.5180 O.co2 212  ASP212     -0.2456
    131  OD2       17.1180   87.2580   22.5960 O.co2 212  ASP212     -0.2456
    132  N         31.3630   95.5330   23.6720 N.3   247  ARG247     -0.1245
    133  CA        32.5040   95.2730   22.8120 C.3   247  ARG247      0.1563
    134  C         33.8000   95.7020   23.4990 C.2   247  ARG247      0.2260
    135  O         34.8720   95.1530   23.2260 O.2   247  ARG247     -0.2867
    136  CB        32.3060   95.9600   21.4530 C.3   247  ARG247      0.0307
    137  CG        31.1310   95.3380   20.6800 C.3   247  ARG247      0.0489
    138  CD        30.8700   95.9780   19.3290 C.3   247  ARG247      0.2205
    139  NE        30.4740   97.3810   19.4530 N.pl3 247  ARG247     -0.0865
    140  CZ        30.1130   98.1460   18.4210 C.cat 247  ARG247      0.5346
    141  NH1       30.0890   97.6350   17.1900 N.pl3 247  ARG247      0.1354
    142  NH2       29.8020   99.4270   18.6130 N.pl3 247  ARG247      0.1354
@<TRIPOS>BOND
     1    50    51    2
     2    50    49    1
     3    48    49    1
     4    16    15    2
     5    42    43    1
     6    49    52    1
     7    33    32    2
     8    32    31    1
     9    44    43    1
    10    44    45    2
    11    15    14    1
    12    43    46    1
    13    19    20    1
    14    19    18    1
    15    17    14    1
    16    17    18    1
    17    52    53    1
    18    20    21    1
    19    41    40    1
    20    14    13    1
    21    38    40   ar
    22    38    36   ar
    23    31    30    1
    24    31    34    1
    25    40    39   ar
    26    36    35   ar
    27    30    24   am
    28    39    37   ar
    29    87    88    1
    30    46    47    1
    31    61    60    1
    32    61    62    1
    33   100   101    1
    34   100    99    1
    35    35    37   ar
    36    35    34    1
    37   101   102    1
    38    22    23    1
    39    53    54    2
    40    53    55   am
    41    60    57    1
    42    59    58    2
    43    93    91    1
    44    24    25    2
    45    24    23    1
    46    56    57    1
    47    23    26    1
    48    63    62   ar
    49    99    98    1
    50    62    64   ar
    51    57    58    1
    52    98    95    1
    53    58    65   am
    54    88    91    1
    55    88    89    1
    56    92    91    1
    57    28    27    2
    58    95    94    1
    59    95    96    1
    60    10     9    2
    61    65    71    1
    62    65    66    1
    63    71    70    1
    64    26    27    1
    65    89    90    2
    66    27    29   am
    67    12    11    1
    68    96   103   am
    69    96    97    2
    70    11     8    1
    71     9     8    1
    72   103   104    1
    73    66    69    1
    74    66    67    1
    75    70    69    1
    76   108   107    1
    77     8     7    1
    78   106   105    2
    79   104   107    1
    80   104   105    1
    81    67    68    2
    82   107   109    1
    83   105   110   am
    84     4     3    2
    85     7     3   am
    86    79    77   am
    87     3     2    1
    88    78    77    2
    89   110   111    1
    90    77    76    1
    91   111   112    1
    92   141   140    1
    93     2     1    1
    94     2     5    1
    95   119   118    1
    96    72    73    1
    97    76    73    1
    98   112   114   am
    99   112   113    2
   100   114   115    1
   101   117   116    2
   102     5     6    1
   103   140   142    1
   104   140   139    2
   105    73    74    1
   106   118   115    1
   107   115   116    1
   108   138   139    1
   109   138   137    1
   110   116   120   am
   111    74    80   am
   112    74    75    2
   113    80    81    1
   114   120   121    1
   115   137   136    1
   116   121   122    1
   117    86    84    1
   118   136   133    1
   119    81    84    1
   120    81    82    1
   121    85    84    1
   122   122   124   am
   123   122   123    2
   124   124   125    1
   125   130   129   ar
   126   131   129   ar
   127   133   134    1
   128   133   132    1
   129   129   128    1
   130    82    83    2
   131   135   134    2
   132   125   128    1
   133   125   126    1
   134   127   126    2
