@<TRIPOS>MOLECULE
tmp/1yndB01.pdb
 205 200 0 0 0
SMALL
GASTEIGER

@<TRIPOS>ATOM
      1  N         42.8830   64.2420   61.1220 N.3    53  HIS53      -0.1226
      2  CA        42.1230   62.9960   61.2470 C.3    53  HIS53       0.1752
      3  C         42.9550   61.7440   61.5080 C.2    53  HIS53       0.2595
      4  O         42.4150   60.7060   61.8970 O.2    53  HIS53      -0.2718
      5  CB        41.2480   62.7810   60.0090 C.3    53  HIS53       0.0759
      6  CG        42.0220   62.6220   58.7410 C.ar   53  HIS53       0.0818
      7  ND1       42.4920   63.6970   58.0210 N.ar   53  HIS53      -0.2268
      8  CD2       42.3960   61.5160   58.0550 C.ar   53  HIS53       0.1154
      9  CE1       43.1290   63.2590   56.9490 C.ar   53  HIS53       0.1986
     10  NE2       43.0810   61.9420   56.9430 N.ar   53  HIS53      -0.2212
     11  N         44.2580   61.8260   61.3040 N.am   54  ARG54      -0.1980
     12  CA        45.1150   60.6750   61.5090 C.3    54  ARG54       0.1597
     13  C         46.4240   61.1280   62.1180 C.2    54  ARG54       0.2287
     14  O         47.1850   61.8700   61.4790 O.2    54  ARG54      -0.2864
     15  CB        45.3620   59.9460   60.1790 C.3    54  ARG54       0.0334
     16  CG        46.1120   58.6450   60.2980 C.3    54  ARG54       0.0492
     17  CD        46.2780   57.8930   58.9510 C.3    54  ARG54       0.2205
     18  NE        44.9960   57.5150   58.3640 N.pl3  54  ARG54      -0.0865
     19  CZ        44.6190   57.7560   57.1130 C.cat  54  ARG54       0.5346
     20  NH1       43.4260   57.3380   56.7050 N.pl3  54  ARG54       0.1354
     21  NH2       45.4320   58.3540   56.2520 N.pl3  54  ARG54       0.1354
     22  N         49.7630   59.4380   64.0530 N.3    56  ILE56      -0.1231
     23  CA        50.4760   58.2500   64.4940 C.3    56  ILE56       0.1678
     24  C         51.7570   58.7140   65.1520 C.2    56  ILE56       0.2434
     25  O         52.6770   59.1850   64.4860 O.2    56  ILE56      -0.2733
     26  CB        50.7880   57.3250   63.3230 C.3    56  ILE56       0.0265
     27  CG1       49.4900   56.9240   62.6100 C.3    56  ILE56       0.0019
     28  CG2       51.5790   56.1270   63.8290 C.3    56  ILE56       0.0020
     29  CD1       49.6850   56.0480   61.3750 C.3    56  ILE56       0.0001
     30  N         51.8080   58.6080   66.4720 N.am   57  PRO57      -0.2718
     31  CA        52.9700   59.0690   67.2200 C.3    57  PRO57       0.1535
     32  C         54.2650   58.4770   66.7090 C.2    57  PRO57       0.2599
     33  O         54.3480   57.2730   66.4510 O.2    57  PRO57      -0.2715
     34  CB        52.6740   58.5910   68.6420 C.3    57  PRO57       0.0310
     35  CG        51.2240   58.5490   68.7140 C.3    57  PRO57       0.0237
     36  CD        50.7580   58.0670   67.3590 C.3    57  PRO57       0.0939
     37  N         55.2690   59.3290   66.5720 N.am   58  GLY58      -0.1941
     38  CA        56.5690   58.9090   66.0890 C.3    58  GLY58       0.2014
     39  C         56.6520   58.8430   64.5810 C.2    58  GLY58       0.2639
     40  O         57.6840   58.4580   64.0410 O.2    58  GLY58      -0.2714
     41  N         55.5700   59.2060   63.8970 N.am   59  PHE59      -0.1959
     42  CA        55.5370   59.1360   62.4370 C.3    59  PHE59       0.1771
     43  C         55.0740   60.4670   61.8290 C.2    59  PHE59       0.2619
     44  O         55.8860   61.2220   61.2990 O.2    59  PHE59      -0.2715
     45  CB        54.6250   57.9790   62.0140 C.3    59  PHE59       0.0574
     46  CG        54.4920   57.7880   60.5160 C.ar   59  PHE59      -0.0200
     47  CD1       53.4210   57.0800   59.9990 C.ar   59  PHE59      -0.0042
     48  CD2       55.4300   58.2910   59.6320 C.ar   59  PHE59      -0.0042
     49  CE1       53.2870   56.8950   58.6460 C.ar   59  PHE59      -0.0003
     50  CE2       55.3060   58.0900   58.2820 C.ar   59  PHE59      -0.0003
     51  CZ        54.2280   57.3780   57.7870 C.ar   59  PHE59      -0.0000
     52  N         53.7850   60.7730   61.9230 N.am   60  MET60      -0.1977
     53  CA        53.2700   61.9740   61.2790 C.3    60  MET60       0.1605
     54  C         51.8720   62.3310   61.7450 C.2    60  MET60       0.2287
     55  O         51.1730   61.5050   62.3190 O.2    60  MET60      -0.2864
     56  CB        53.2720   61.8000   59.7540 C.3    60  MET60       0.0413
     57  CG        52.4060   60.6600   59.2540 C.3    60  MET60       0.0598
     58  SD        50.7110   61.1350   58.8760 S.3    60  MET60      -0.1393
     59  CE        49.7870   59.7520   59.4860 C.3    60  MET60       0.0692
     60  N         48.3680   63.9410   60.0620 N.3    62  GLN62      -0.1245
     61  CA        47.7510   64.1680   58.7550 C.3    62  GLN62       0.1566
     62  C         46.4360   64.9160   58.8970 C.2    62  GLN62       0.2260
     63  O         45.6270   64.6010   59.7730 O.2    62  GLN62      -0.2867
     64  CB        47.5220   62.8150   58.0470 C.3    62  GLN62       0.0367
     65  CG        46.8490   62.9080   56.6670 C.3    62  GLN62       0.0905
     66  CD        46.7480   61.6090   55.9330 C.2    62  GLN62       0.2608
     67  OE1       47.3430   60.6110   56.3490 O.2    62  GLN62      -0.2717
     68  NE2       45.9790   61.5880   54.8390 N.am   62  GLN62      -0.0878
     69  N         34.8790   66.9940   53.5040 N.3    68  ARG68      -0.1245
     70  CA        34.1200   65.8700   54.0550 C.3    68  ARG68       0.1563
     71  C         34.3870   65.6360   55.5390 C.2    68  ARG68       0.2260
     72  O         33.6410   64.9040   56.1970 O.2    68  ARG68      -0.2867
     73  CB        34.4320   64.5910   53.2790 C.3    68  ARG68       0.0307
     74  CG        33.9790   64.6130   51.8280 C.3    68  ARG68       0.0489
     75  CD        34.2310   63.2990   51.0890 C.3    68  ARG68       0.2205
     76  NE        34.6910   63.5040   49.7130 N.pl3  68  ARG68      -0.0865
     77  CZ        35.2170   62.5540   48.9320 C.cat  68  ARG68       0.5346
     78  NH1       35.3450   61.3030   49.3660 N.pl3  68  ARG68       0.1354
     79  NH2       35.6110   62.8600   47.7020 N.pl3  68  ARG68       0.1354
     80  N         38.5860   62.3110   56.1970 N.3    71  GLY71      -0.1210
     81  CA        39.8020   61.7370   55.6540 C.3    71  GLY71       0.1956
     82  C         39.7030   61.3010   54.2070 C.2    71  GLY71       0.2613
     83  O         40.6820   60.8140   53.6480 O.2    71  GLY71      -0.2717
     84  N         38.5320   61.4540   53.5920 N.am   72  THR72      -0.1938
     85  CA        38.3750   61.0570   52.1950 C.3    72  THR72       0.2028
     86  C         38.2850   62.2410   51.2360 C.2    72  THR72       0.2642
     87  O         38.3010   62.0450   50.0180 O.2    72  THR72      -0.2714
     88  CB        37.1070   60.1930   52.0140 C.3    72  THR72       0.1808
     89  OG1       35.9420   60.9840   52.2660 O.3    72  THR72      -0.2208
     90  CG2       37.0380   59.0600   53.0360 C.3    72  THR72       0.0379
     91  N         38.1980   63.4610   51.7680 N.am   73  GLY73      -0.1954
     92  CA        37.9710   64.6260   50.9330 C.3    73  GLY73       0.1869
     93  C         39.1130   65.5990   50.7940 C.2    73  GLY73       0.2309
     94  O         40.2720   65.2480   51.0020 O.2    73  GLY73      -0.2863
     95  N         49.7270   64.4960   51.1240 N.3   100  ALA100     -0.1231
     96  CA        49.0950   63.1840   51.1250 C.3   100  ALA100      0.1694
     97  C         48.4640   63.0090   49.7630 C.2   100  ALA100      0.2592
     98  O         48.1560   63.9870   49.1010 O.2   100  ALA100     -0.2718
     99  CB        48.0340   63.0940   52.1850 C.3   100  ALA100      0.0304
    100  N         48.2460   61.7720   49.3360 N.am  101  ASN101     -0.1960
    101  CA        47.6100   61.5590   48.0330 C.3   101  ASN101      0.1819
    102  C         47.0110   60.1650   47.9010 C.2   101  ASN101      0.2621
    103  O         47.1750   59.3270   48.7870 O.2   101  ASN101     -0.2715
    104  CB        48.6040   61.8410   46.8980 C.3   101  ASN101      0.1195
    105  CG        49.7680   60.8780   46.8730 C.2   101  ASN101      0.2630
    106  OD1       49.5910   59.6660   46.7860 O.2   101  ASN101     -0.2716
    107  ND2       50.9870   61.4200   46.9260 N.am  101  ASN101     -0.0877
    108  N         46.3060   59.9230   46.7980 N.am  102  ALA102     -0.1977
    109  CA        45.7040   58.6150   46.5430 C.3   102  ALA102      0.1597
    110  C         46.2510   58.0220   45.2450 C.2   102  ALA102      0.2287
    111  O         45.5190   57.3830   44.4780 O.2   102  ALA102     -0.2864
    112  CB        44.1960   58.7250   46.4880 C.3   102  ALA102      0.0319
    113  N         44.9560   67.5460   51.3160 N.3   110  GLN110     -0.1245
    114  CA        45.4740   66.8030   52.4710 C.3   110  GLN110      0.1566
    115  C         46.9950   66.8100   52.4860 C.2   110  GLN110      0.2260
    116  O         47.6540   66.7110   51.4550 O.2   110  GLN110     -0.2867
    117  CB        44.9500   65.3790   52.5020 C.3   110  GLN110      0.0367
    118  CG        43.4720   65.3080   52.8160 C.3   110  GLN110      0.0905
    119  CD        43.0220   63.9250   53.2090 C.2   110  GLN110      0.2608
    120  OE1       43.7150   63.2110   53.9360 O.2   110  GLN110     -0.2717
    121  NE2       41.8650   63.5210   52.6990 N.am  110  GLN110     -0.0878
    122  N         50.5900   66.1710   55.4140 N.3   112  PHE112     -0.1241
    123  CA        51.0230   65.6170   56.6820 C.3   112  PHE112      0.1605
    124  C         52.2930   66.3230   57.1440 C.2   112  PHE112      0.2264
    125  O         53.0790   66.8230   56.3370 O.2   112  PHE112     -0.2867
    126  CB        51.1780   64.0830   56.6500 C.3   112  PHE112      0.0534
    127  CG        52.1750   63.5580   55.6420 C.ar  112  PHE112     -0.0203
    128  CD1       51.8220   63.4050   54.3120 C.ar  112  PHE112     -0.0042
    129  CD2       53.4450   63.1750   56.0350 C.ar  112  PHE112     -0.0042
    130  CE1       52.7380   62.9030   53.3840 C.ar  112  PHE112     -0.0003
    131  CE2       54.3470   62.6540   55.1100 C.ar  112  PHE112     -0.0003
    132  CZ        53.9820   62.5300   53.7830 C.ar  112  PHE112     -0.0000
    133  N         59.3820   62.5360   62.3380 N.3   116  ALA116     -0.1231
    134  CA        60.5590   61.6840   62.2560 C.3   116  ALA116      0.1694
    135  C         61.0470   61.7260   60.8300 C.2   116  ALA116      0.2592
    136  O         60.3460   62.2110   59.9360 O.2   116  ALA116     -0.2718
    137  CB        60.2050   60.2580   62.6280 C.3   116  ALA116      0.0304
    138  N         62.2440   61.2090   60.6050 N.am  117  LYS117     -0.1966
    139  CA        62.7410   61.0540   59.2520 C.3   117  LYS117      0.1728
    140  C         61.9420   59.9050   58.6140 C.2   117  LYS117      0.2616
    141  O         61.7780   58.8440   59.2280 O.2   117  LYS117     -0.2715
    142  CB        64.2330   60.7310   59.2650 C.3   117  LYS117      0.0311
    143  CG        64.8360   60.6610   57.8810 C.3   117  LYS117      0.0038
    144  CD        66.2920   60.2400   57.9220 C.3   117  LYS117      0.0206
    145  CE        66.8850   60.2130   56.5330 C.3   117  LYS117      0.1093
    146  NZ        68.2220   59.5720   56.5390 N.3   117  LYS117     -0.1314
    147  N         61.4220   60.1200   57.4090 N.am  118  THR118     -0.1951
    148  CA        60.6060   59.1080   56.7270 C.3   118  THR118      0.1897
    149  C         61.0580   58.9240   55.2780 C.2   118  THR118      0.2313
    150  O         60.2960   59.1510   54.3430 O.2   118  THR118     -0.2863
    151  CB        59.1120   59.5070   56.7570 C.3   118  THR118      0.1794
    152  OG1       58.9310   60.7940   56.1490 O.3   118  THR118     -0.2208
    153  CG2       58.6070   59.7000   58.1860 C.3   118  THR118      0.0378
    154  N         61.4120   56.4320   53.3290 N.3   120  TRP120     -0.1227
    155  CA        60.6620   55.5230   52.4560 C.3   120  TRP120      0.1737
    156  C         59.6330   56.2550   51.5890 C.2   120  TRP120      0.2595
    157  O         59.2520   55.7740   50.5110 O.2   120  TRP120     -0.2718
    158  CB        59.9640   54.4640   53.3050 C.3   120  TRP120      0.0564
    159  CG        59.6290   53.2010   52.5910 C.ar  120  TRP120      0.0003
    160  CD1       58.4270   52.8620   52.0450 C.ar  120  TRP120      0.0946
    161  CD2       60.5010   52.0840   52.3590 C.ar  120  TRP120      0.0152
    162  NE1       58.4970   51.6070   51.4880 N.ar  120  TRP120     -0.2442
    163  CE2       59.7570   51.1050   51.6730 C.ar  120  TRP120      0.0810
    164  CE3       61.8350   51.8090   52.6730 C.ar  120  TRP120      0.0012
    165  CZ2       60.3030   49.8760   51.2890 C.ar  120  TRP120      0.0191
    166  CZ3       62.3800   50.5860   52.2880 C.ar  120  TRP120      0.0001
    167  CH2       61.6120   49.6390   51.6060 C.ar  120  TRP120      0.0015
    168  N         59.1840   57.4200   52.0580 N.am  121  LEU121     -0.1980
    169  CA        58.1770   58.2040   51.3570 C.3   121  LEU121      0.1596
    170  C         58.7230   59.0420   50.2110 C.2   121  LEU121      0.2287
    171  O         57.9520   59.5870   49.4330 O.2   121  LEU121     -0.2864
    172  CB        57.4430   59.1220   52.3330 C.3   121  LEU121      0.0297
    173  CG        56.8280   58.4110   53.5380 C.3   121  LEU121      0.0022
    174  CD1       56.1040   59.4080   54.4430 C.3   121  LEU121      0.0001
    175  CD2       55.8860   57.2830   53.1060 C.3   121  LEU121      0.0001
    176  N         57.2840   59.5560   46.4080 N.3   124  LYS124     -0.1231
    177  CA        55.8650   59.2190   46.4030 C.3   124  LYS124      0.1693
    178  C         55.0130   60.4100   46.8490 C.2   124  LYS124      0.2592
    179  O         53.8940   60.5930   46.3670 O.2   124  LYS124     -0.2718
    180  CB        55.5990   58.0170   47.3100 C.3   124  LYS124      0.0285
    181  CG        54.1490   57.5590   47.3260 C.3   124  LYS124      0.0035
    182  CD        54.0030   56.2560   48.1210 C.3   124  LYS124      0.0206
    183  CE        52.5480   55.8460   48.2640 C.3   124  LYS124      0.1093
    184  NZ        51.8670   55.6100   46.9450 N.3   124  LYS124     -0.1314
    185  N         55.5630   61.2340   47.7390 N.am  125  HIS125     -0.1976
    186  CA        54.8800   62.3960   48.2790 C.3   125  HIS125      0.1656
    187  C         55.7040   63.6410   48.0350 C.2   125  HIS125      0.2291
    188  O         56.9130   63.6210   48.2300 O.2   125  HIS125     -0.2864
    189  CB        54.6600   62.2030   49.7740 C.3   125  HIS125      0.0771
    190  CG        53.7930   61.0310   50.0860 C.ar  125  HIS125      0.0820
    191  ND1       52.4190   61.1120   50.0680 N.ar  125  HIS125     -0.2267
    192  CD2       54.0960   59.7470   50.3870 C.ar  125  HIS125      0.1154
    193  CE1       51.9150   59.9210   50.3380 C.ar  125  HIS125      0.1986
    194  NE2       52.9090   59.0730   50.5260 N.ar  125  HIS125     -0.2212
    195  N         48.6370   54.1550   67.8270 N.3   147  ARG147     -0.1245
    196  CA        49.3530   53.3090   66.8720 C.3   147  ARG147      0.1563
    197  C         48.6140   53.1470   65.5400 C.2   147  ARG147      0.2260
    198  O         49.2420   53.0300   64.4870 O.2   147  ARG147     -0.2867
    199  CB        49.5820   51.9080   67.4620 C.3   147  ARG147      0.0307
    200  CG        50.4990   51.8350   68.6720 C.3   147  ARG147      0.0489
    201  CD        50.7180   50.4020   69.1800 C.3   147  ARG147      0.2205
    202  NE        51.5000   50.3400   70.4180 N.pl3 147  ARG147     -0.0865
    203  CZ        51.6890   49.2320   71.1360 C.cat 147  ARG147      0.5346
    204  NH1       51.1500   48.0790   70.7550 N.pl3 147  ARG147      0.1354
    205  NH2       52.4180   49.2760   72.2460 N.pl3 147  ARG147      0.1354
@<TRIPOS>BOND
     1   111   110    2
     2   110   109    1
     3   179   178    2
     4   177   176    1
     5   177   178    1
     6   177   180    1
     7   112   109    1
     8   109   108    1
     9   106   105    2
    10   108   102   am
    11   178   185   am
    12   105   104    1
    13   105   107   am
    14   104   101    1
    15   184   183    1
    16   180   181    1
    17   181   182    1
    18    79    77    1
    19   185   186    1
    20   102   101    1
    21   102   103    2
    22   101   100    1
    23   187   188    2
    24   187   186    1
    25   182   183    1
    26   186   189    1
    27    77    78    1
    28    77    76    2
    29    98    97    2
    30   100    97   am
    31   171   170    2
    32    76    75    1
    33    97    96    1
    34   189   190    1
    35    87    86    2
    36   191   190   ar
    37   191   193   ar
    38   190   192   ar
    39   170   169    1
    40   193   194   ar
    41   192   194   ar
    42   157   156    2
    43    93    92    1
    44    93    94    2
    45    92    91    1
    46    75    74    1
    47    95    96    1
    48    96    99    1
    49    86    91   am
    50    86    85    1
    51   165   167   ar
    52   165   163   ar
    53   113   114    1
    54   169   168    1
    55   169   172    1
    56   116   115    2
    57   162   163   ar
    58   162   160   ar
    59   156   168   am
    60   156   155    1
    61   167   166   ar
    62   163   161   ar
    63    74    73    1
    64    88    85    1
    65    88    89    1
    66    88    90    1
    67   160   159   ar
    68    85    84    1
    69   166   164   ar
    70   172   173    1
    71   161   159   ar
    72   161   164   ar
    73   155   158    1
    74   155   154    1
    75   114   115    1
    76   114   117    1
    77   117   118    1
    78   159   158    1
    79   121   119   am
    80   118   119    1
    81   175   173    1
    82   119   120    2
    83    73    70    1
    84   130   132   ar
    85   130   128   ar
    86    69    70    1
    87   173   174    1
    88    84    82   am
    89    83    82    2
    90   132   131   ar
    91    70    71    1
    92    82    81    1
    93   128   127   ar
    94   150   149    2
    95    68    66   am
    96   131   129   ar
    97   149   148    1
    98   122   123    1
    99    71    72    2
   100   127   129   ar
   101   127   126    1
   102    81    80    1
   103    66    67    2
   104    66    65    1
   105   152   151    1
   106    21    19    1
   107   125   124    2
   108   145   146    1
   109   145   144    1
   110   126   123    1
   111    65    64    1
   112   123   124    1
   113    20    19    1
   114   148   151    1
   115   148   147    1
   116   151   153    1
   117    10     9   ar
   118    10     8   ar
   119     9     7   ar
   120    19    18    2
   121   147   140   am
   122    51    50   ar
   123    51    49   ar
   124   143   144    1
   125   143   142    1
   126     7     6   ar
   127    64    61    1
   128     8     6   ar
   129    50    48   ar
   130    18    17    1
   131   140   141    2
   132   140   139    1
   133    49    47   ar
   134     6     5    1
   135    61    62    1
   136    61    60    1
   137    58    57    1
   138    58    59    1
   139    62    63    2
   140    17    16    1
   141   139   142    1
   142   139   138    1
   143    57    56    1
   144    48    46   ar
   145    56    53    1
   146   136   135    2
   147    47    46   ar
   148     5     2    1
   149    15    16    1
   150    15    12    1
   151    46    45    1
   152   138   135   am
   153   135   134    1
   154     1     2    1
   155     2     3    1
   156    53    54    1
   157    53    52    1
   158    44    43    2
   159    11     3   am
   160    11    12    1
   161    29    27    1
   162    14    13    2
   163     3     4    2
   164    12    13    1
   165    54    55    2
   166    43    52   am
   167    43    42    1
   168    45    42    1
   169   134   133    1
   170   134   137    1
   171    42    41    1
   172    27    26    1
   173    26    28    1
   174    26    23    1
   175    41    39   am
   176    40    39    2
   177    22    23    1
   178    25    24    2
   179   198   197    2
   180    23    24    1
   181    39    38    1
   182    24    30   am
   183   197   196    1
   184    38    37    1
   185    33    32    2
   186    30    31    1
   187    30    36    1
   188    37    32   am
   189    32    31    1
   190   196   199    1
   191   196   195    1
   192    31    34    1
   193    36    35    1
   194   199   200    1
   195    34    35    1
   196   200   201    1
   197   201   202    1
   198   202   203    2
   199   204   203    1
   200   203   205    1
