@<TRIPOS>MOLECULE
tmp/1ynhB00.pdb
 165 157 0 0 0
SMALL
GASTEIGER

@<TRIPOS>ATOM
      1  N         43.3880   32.1040   12.6060 N.3    16  HIS16      -0.1241
      2  CA        44.6890   32.2380   13.2650 C.3    16  HIS16       0.1621
      3  C         44.5310   31.9480   14.7480 C.2    16  HIS16       0.2264
      4  O         43.4090   31.8600   15.2430 O.2    16  HIS16      -0.2867
      5  CB        45.2720   33.6490   13.0630 C.3    16  HIS16       0.0745
      6  CG        44.4960   34.7340   13.7420 C.ar   16  HIS16       0.0817
      7  ND1       43.3240   35.2490   13.2290 N.ar   16  HIS16      -0.2268
      8  CD2       44.6990   35.3690   14.9220 C.ar   16  HIS16       0.1154
      9  CE1       42.8380   36.1510   14.0630 C.ar   16  HIS16       0.1986
     10  NE2       43.6530   36.2430   15.0990 N.ar   16  HIS16      -0.2212
     11  N         45.0340   33.2620   18.4300 N.3    18  ALA18      -0.1231
     12  CA        45.2900   34.4460   19.2430 C.3    18  ALA18       0.1694
     13  C         44.9920   34.3010   20.7400 C.2    18  ALA18       0.2593
     14  O         45.0160   35.2860   21.4700 O.2    18  ALA18      -0.2718
     15  CB        44.5120   35.6270   18.6700 C.3    18  ALA18       0.0304
     16  N         44.7170   33.0830   21.1940 N.am   19  GLY19      -0.1942
     17  CA        44.4220   32.8650   22.6040 C.3    19  GLY19       0.2014
     18  C         43.3610   33.8020   23.1610 C.2    19  GLY19       0.2639
     19  O         43.5120   34.3520   24.2500 O.2    19  GLY19      -0.2714
     20  N         42.2720   33.9630   22.4200 N.am   20  LEU20      -0.1963
     21  CA        41.1900   34.8630   22.8160 C.3    20  LEU20       0.1728
     22  C         40.1550   34.2820   23.7710 C.2    20  LEU20       0.2616
     23  O         39.3410   35.0260   24.3370 O.2    20  LEU20      -0.2715
     24  CB        40.4590   35.3610   21.5670 C.3    20  LEU20       0.0311
     25  CG        41.3290   36.0460   20.5130 C.3    20  LEU20       0.0022
     26  CD1       40.5640   36.1700   19.1950 C.3    20  LEU20       0.0001
     27  CD2       41.7600   37.4060   21.0360 C.3    20  LEU20       0.0001
     28  N         40.1720   32.9670   23.9590 N.am   21  SER21      -0.1950
     29  CA        39.1700   32.3530   24.8150 C.3    21  SER21       0.1924
     30  C         39.6720   31.7130   26.1040 C.2    21  SER21       0.2314
     31  O         40.0520   30.5470   26.1220 O.2    21  SER21      -0.2863
     32  CB        38.3720   31.3240   24.0060 C.3    21  SER21       0.2116
     33  OG        37.6910   31.9510   22.9280 O.3    21  SER21      -0.2180
     34  N         39.0840   28.0000   27.4400 N.3    24  ASN24      -0.1240
     35  CA        39.2450   27.1220   26.2830 C.3    24  ASN24       0.1653
     36  C         40.7570   26.8750   26.2770 C.2    24  ASN24       0.2266
     37  O         41.5290   27.6700   25.7390 O.2    24  ASN24      -0.2867
     38  CB        38.7710   27.8750   25.0230 C.3    24  ASN24       0.1155
     39  CG        39.0920   27.1530   23.7240 C.2    24  ASN24       0.2627
     40  OD1       39.8650   26.0780   23.8030 O.2    24  ASN24      -0.2716
     41  ND2       38.6480   27.5750   22.6510 N.am   24  ASN24      -0.0877
     42  N         42.7950   26.8500   22.8840 N.3    27  SER27      -0.1217
     43  CA        43.0130   28.2200   22.4330 C.3    27  SER27       0.1889
     44  C         44.2100   28.8490   23.1600 C.2    27  SER27       0.2288
     45  O         45.1200   29.3970   22.5370 O.2    27  SER27      -0.2866
     46  CB        41.7550   29.0500   22.7000 C.3    27  SER27       0.2089
     47  OG        42.0370   30.4370   22.6510 O.3    27  SER27      -0.2183
     48  N         38.9260   37.1340   13.8230 N.3   101  SER101     -0.1217
     49  CA        38.8540   35.7140   14.1420 C.3   101  SER101      0.1889
     50  C         37.9300   34.9720   13.1890 C.2   101  SER101      0.2288
     51  O         36.8990   35.4990   12.7660 O.2   101  SER101     -0.2866
     52  CB        38.3540   35.5230   15.5790 C.3   101  SER101      0.2089
     53  OG        38.2790   34.1480   15.9310 O.3   101  SER101     -0.2183
     54  N         36.3450   32.5210   14.0750 N.3   103  SER103     -0.1217
     55  CA        35.4990   31.8110   15.0260 C.3   103  SER103      0.1889
     56  C         34.0950   31.4410   14.5400 C.2   103  SER103      0.2288
     57  O         33.5300   30.4440   15.0020 O.2   103  SER103     -0.2866
     58  CB        35.3990   32.5910   16.3450 C.3   103  SER103      0.2089
     59  OG        34.7480   33.8260   16.1600 O.3   103  SER103     -0.2183
     60  N         32.7770   27.7170   13.9840 N.3   106  TRP106     -0.1241
     61  CA        32.1750   26.7840   14.9250 C.3   106  TRP106      0.1605
     62  C         30.6960   27.1360   15.0030 C.2   106  TRP106      0.2264
     63  O         30.2440   27.8360   15.9130 O.2   106  TRP106     -0.2867
     64  CB        32.8970   26.8790   16.2770 C.3   106  TRP106      0.0550
     65  CG        34.3570   26.5080   16.1180 C.ar  106  TRP106      0.0003
     66  CD1       34.8430   25.3260   15.6290 C.ar  106  TRP106      0.0946
     67  CD2       35.5030   27.3580   16.3060 C.ar  106  TRP106      0.0152
     68  NE1       36.2010   25.3900   15.4870 N.ar  106  TRP106     -0.2442
     69  CE2       36.6380   26.6250   15.8940 C.ar  106  TRP106      0.0810
     70  CE3       35.6800   28.6670   16.7740 C.ar  106  TRP106      0.0012
     71  CZ2       37.9360   27.1560   15.9330 C.ar  106  TRP106      0.0191
     72  CZ3       36.9730   29.2000   16.8120 C.ar  106  TRP106      0.0001
     73  CH2       38.0830   28.4430   16.3930 C.ar  106  TRP106      0.0015
     74  N         28.2650   25.3830   15.7470 N.3   108  ALA108     -0.1231
     75  CA        27.5190   24.7470   16.8290 C.3   108  ALA108      0.1694
     76  C         27.0760   25.8730   17.7670 C.2   108  ALA108      0.2592
     77  O         26.1220   25.7250   18.5280 O.2   108  ALA108     -0.2718
     78  CB        28.4070   23.7600   17.5850 C.3   108  ALA108      0.0304
     79  N         27.7810   27.0010   17.7000 N.am  109  ASN109     -0.1974
     80  CA        27.4760   28.1660   18.5340 C.3   109  ASN109      0.1688
     81  C         26.6950   29.2390   17.7710 C.2   109  ASN109      0.2292
     82  O         26.4380   30.3200   18.3040 O.2   109  ASN109     -0.2864
     83  CB        28.7710   28.8110   19.0670 C.3   109  ASN109      0.1181
     84  CG        29.6010   27.8640   19.9000 C.2   109  ASN109      0.2629
     85  OD1       30.7160   27.4980   19.5210 O.2   109  ASN109     -0.2716
     86  ND2       29.0640   27.4580   21.0490 N.am  109  ASN109     -0.0877
     87  N         35.2210   38.6940   20.7760 N.3   136  HIS136     -0.1226
     88  CA        35.4560   38.3150   19.3890 C.3   136  HIS136      0.1752
     89  C         34.3190   37.4820   18.8090 C.2   136  HIS136      0.2595
     90  O         34.0380   37.5660   17.6120 O.2   136  HIS136     -0.2718
     91  CB        36.8120   37.6050   19.2210 C.3   136  HIS136      0.0759
     92  CG        36.8740   36.2130   19.7720 C.ar  136  HIS136      0.0818
     93  ND1       36.9320   35.9420   21.1220 N.ar  136  HIS136     -0.2268
     94  CD2       36.9840   35.0160   19.1450 C.ar  136  HIS136      0.1154
     95  CE1       37.0820   34.6410   21.3030 C.ar  136  HIS136      0.1986
     96  NE2       37.1180   34.0570   20.1190 N.ar  136  HIS136     -0.2212
     97  N         33.6440   36.7000   19.6480 N.am  137  ARG137     -0.1980
     98  CA        32.5220   35.9020   19.1600 C.3   137  ARG137      0.1597
     99  C         31.1930   36.6740   19.2280 C.2   137  ARG137      0.2287
    100  O         30.2910   36.4480   18.4210 O.2   137  ARG137     -0.2864
    101  CB        32.4210   34.5810   19.9420 C.3   137  ARG137      0.0334
    102  CG        33.6790   33.7120   19.8330 C.3   137  ARG137      0.0492
    103  CD        33.3520   32.2160   19.8080 C.3   137  ARG137      0.2205
    104  NE        32.5200   31.8860   18.6550 N.pl3 137  ARG137     -0.0865
    105  CZ        32.1160   30.6600   18.3400 C.cat 137  ARG137      0.5346
    106  NH1       32.4710   29.6260   19.0940 N.pl3 137  ARG137      0.1354
    107  NH2       31.3470   30.4720   17.2720 N.pl3 137  ARG137      0.1354
    108  N         29.8020   30.4900   30.2950 N.3   211  ARG211     -0.1245
    109  CA        29.2680   31.3450   29.2440 C.3   211  ARG211      0.1563
    110  C         27.7490   31.3060   29.1180 C.2   211  ARG211      0.2260
    111  O         27.1420   32.2810   28.7040 O.2   211  ARG211     -0.2867
    112  CB        29.8570   30.9680   27.8820 C.3   211  ARG211      0.0307
    113  CG        31.3670   31.0000   27.7700 C.3   211  ARG211      0.0489
    114  CD        31.7590   30.7370   26.3220 C.3   211  ARG211      0.2205
    115  NE        33.1880   30.5000   26.1590 N.pl3 211  ARG211     -0.0865
    116  CZ        33.7720   30.2500   24.9930 C.cat 211  ARG211      0.5346
    117  NH1       33.0440   30.2070   23.8800 N.pl3 211  ARG211      0.1354
    118  NH2       35.0780   30.0330   24.9390 N.pl3 211  ARG211      0.1354
    119  N         34.0460   24.2890   28.2950 N.3   246  PHE246     -0.1227
    120  CA        33.3800   25.5800   28.1550 C.3   246  PHE246      0.1736
    121  C         31.9970   25.5330   27.5040 C.2   246  PHE246      0.2595
    122  O         31.2570   26.5070   27.5640 O.2   246  PHE246     -0.2718
    123  CB        34.3070   26.5930   27.4530 C.3   246  PHE246      0.0547
    124  CG        34.8480   26.1340   26.1260 C.ar  246  PHE246     -0.0202
    125  CD1       34.2100   26.4850   24.9390 C.ar  246  PHE246     -0.0042
    126  CD2       36.0120   25.3680   26.0620 C.ar  246  PHE246     -0.0042
    127  CE1       34.7230   26.0840   23.7000 C.ar  246  PHE246     -0.0003
    128  CE2       36.5360   24.9580   24.8290 C.ar  246  PHE246     -0.0003
    129  CZ        35.8900   25.3180   23.6450 C.ar  246  PHE246     -0.0000
    130  N         31.6590   24.3970   26.8960 N.am  247  HIS247     -0.1975
    131  CA        30.3440   24.1650   26.2840 C.3   247  HIS247      0.1656
    132  C         29.9880   22.7160   26.6040 C.2   247  HIS247      0.2291
    133  O         30.8780   21.8840   26.7650 O.2   247  HIS247     -0.2864
    134  CB        30.3790   24.3130   24.7580 C.3   247  HIS247      0.0771
    135  CG        30.5560   25.7180   24.2810 C.ar  247  HIS247      0.0820
    136  ND1       31.3810   26.0420   23.2250 N.ar  247  HIS247     -0.2267
    137  CD2       30.0070   26.8820   24.7010 C.ar  247  HIS247      0.1154
    138  CE1       31.3370   27.3470   23.0200 C.ar  247  HIS247      0.1986
    139  NE2       30.5100   27.8790   23.9020 N.ar  247  HIS247     -0.2212
    140  N         29.0370   20.4500   24.7020 N.3   249  ASP249     -0.1239
    141  CA        29.5320   19.5200   23.6840 C.3   249  ASP249      0.1674
    142  C         31.0080   19.1090   23.8110 C.2   249  ASP249      0.2266
    143  O         31.5810   18.5090   22.9030 O.2   249  ASP249     -0.2867
    144  CB        29.2240   20.0350   22.2620 C.3   249  ASP249      0.1410
    145  CG        29.9880   21.2980   21.8950 C.2   249  ASP249      0.3668
    146  OD1       30.7470   21.8210   22.7360 O.co2 249  ASP249     -0.2456
    147  OD2       29.8160   21.7730   20.7490 O.co2 249  ASP249     -0.2456
    148  N         42.3440   25.3530   18.2140 N.3   358  ASN358     -0.1225
    149  CA        41.6420   26.5010   18.7750 C.3   358  ASN358      0.1785
    150  C         40.4540   26.0460   19.6110 C.2   358  ASN358      0.2597
    151  O         39.5740   26.8330   19.9360 O.2   358  ASN358     -0.2718
    152  CB        41.1860   27.4790   17.6850 C.3   358  ASN358      0.1169
    153  CG        41.9460   28.7960   17.7430 C.2   358  ASN358      0.2627
    154  OD1       42.5670   29.1110   18.7520 O.2   358  ASN358     -0.2716
    155  ND2       41.8870   29.5750   16.6680 N.am  358  ASN358     -0.0877
    156  N         40.4360   24.7610   19.9460 N.am  359  GLY359     -0.1957
    157  CA        39.3710   24.2290   20.7730 C.3   359  GLY359      0.1869
    158  C         38.0900   23.8180   20.0820 C.2   359  GLY359      0.2309
    159  O         37.0280   23.8380   20.7040 O.2   359  GLY359     -0.2863
    160  N         31.8020   20.8960   17.1100 N.3   364  CYS364     -0.1235
    161  CA        31.8500   22.3610   17.1460 C.3   364  CYS364      0.1677
    162  C         31.6800   22.9620   15.7450 C.2   364  CYS364      0.2270
    163  O         31.1370   24.0610   15.5870 O.2   364  CYS364     -0.2867
    164  CB        33.1830   22.8370   17.7260 C.3   364  CYS364      0.0956
    165  SG        33.4010   22.4790   19.4840 S.3   364  CYS364     -0.0801
@<TRIPOS>BOND
     1     1     2    1
     2    51    50    2
     3     5     2    1
     4     5     6    1
     5    50    49    1
     6     7     6   ar
     7     7     9   ar
     8     2     3    1
     9     6     8   ar
    10    48    49    1
    11    60    61    1
    12     9    10   ar
    13    54    55    1
    14    49    52    1
    15    56    57    2
    16    56    55    1
    17     3     4    2
    18     8    10   ar
    19    61    62    1
    20    61    64    1
    21    62    63    2
    22    55    58    1
    23    68    66   ar
    24    68    69   ar
    25    52    53    1
    26   163   162    2
    27    66    65   ar
    28   162   161    1
    29    74    75    1
    30    69    71   ar
    31    69    67   ar
    32    71    73   ar
    33    65    64    1
    34    65    67   ar
    35    59    58    1
    36    67    70   ar
    37    73    72   ar
    38   155   153   am
    39    70    72   ar
    40    75    78    1
    41    75    76    1
    42   160   161    1
    43   161   164    1
    44   107   105    1
    45    90    89    2
    46   152   153    1
    47   152   149    1
    48    79    76   am
    49    79    80    1
    50   164   165    1
    51   153   154    2
    52    76    77    2
    53    81    82    2
    54    81    80    1
    55   148   149    1
    56   105   104    2
    57   105   106    1
    58   100    99    2
    59    11    12    1
    60    80    83    1
    61   104   103    1
    62    15    12    1
    63   149   150    1
    64    89    88    1
    65    89    97   am
    66    83    84    1
    67    94    92   ar
    68    94    96   ar
    69    98    99    1
    70    98    97    1
    71    98   101    1
    72    26    25    1
    73    91    88    1
    74    91    92    1
    75    12    13    1
    76    88    87    1
    77    85    84    2
    78   150   151    2
    79   150   156   am
    80    92    93   ar
    81   103   102    1
    82   102   101    1
    83    84    86   am
    84   156   157    1
    85   158   159    2
    86   158   157    1
    87    96    95   ar
    88    25    27    1
    89    25    24    1
    90    13    16   am
    91    13    14    2
    92   147   145   ar
    93    93    95   ar
    94    16    17    1
    95    24    21    1
    96   145   144    1
    97   145   146   ar
    98   144   141    1
    99    20    21    1
   100    20    18   am
   101    43    46    1
   102    43    42    1
   103    43    44    1
   104    45    44    2
   105    17    18    1
   106    47    46    1
   107    41    39   am
   108    21    22    1
   109   143   142    2
   110    33    32    1
   111   138   136   ar
   112   138   139   ar
   113    18    19    2
   114   136   135   ar
   115   129   127   ar
   116   129   128   ar
   117   141   142    1
   118   141   140    1
   119   127   125   ar
   120    39    40    2
   121    39    38    1
   122    22    28   am
   123    22    23    2
   124   117   116    1
   125   139   137   ar
   126    28    29    1
   127    32    29    1
   128   135   137   ar
   129   135   134    1
   130   134   131    1
   131    29    30    1
   132   128   126   ar
   133   118   116    1
   134   125   124   ar
   135   116   115    2
   136    38    35    1
   137    37    36    2
   138   126   124   ar
   139    30    31    2
   140   124   123    1
   141   115   114    1
   142    36    35    1
   143    35    34    1
   144   131   132    1
   145   131   130    1
   146   114   113    1
   147   132   133    2
   148   130   121   am
   149   123   120    1
   150   121   122    2
   151   121   120    1
   152   113   112    1
   153   112   109    1
   154   120   119    1
   155   111   110    2
   156   110   109    1
   157   109   108    1
