@<TRIPOS>MOLECULE
tmp/1yniA00.pdb
 185 175 0 0 0
SMALL
GASTEIGER

@<TRIPOS>ATOM
      1  N         17.5960   51.1910   79.7220 N.3    16  HIS16      -0.1241
      2  CA        18.7880   51.0200   78.9070 C.3    16  HIS16       0.1621
      3  C         18.5050   51.3530   77.4360 C.2    16  HIS16       0.2264
      4  O         17.3570   51.5660   77.0490 O.2    16  HIS16      -0.2867
      5  CB        19.3190   49.5850   79.0320 C.3    16  HIS16       0.0745
      6  CG        18.4620   48.5500   78.3660 C.ar   16  HIS16       0.0817
      7  ND1       17.3500   48.0000   78.9660 N.ar   16  HIS16      -0.2268
      8  CD2       18.5670   47.9560   77.1520 C.ar   16  HIS16       0.1154
      9  CE1       16.8080   47.1110   78.1520 C.ar   16  HIS16       0.1986
     10  NE2       17.5270   47.0640   77.0460 N.ar   16  HIS16      -0.2212
     11  N         18.6330   50.0420   73.6620 N.3    18  ALA18      -0.1231
     12  CA        18.7050   48.8310   72.8530 C.3    18  ALA18       0.1694
     13  C         18.3350   49.0240   71.4000 C.2    18  ALA18       0.2593
     14  O         18.3810   48.0710   70.6320 O.2    18  ALA18      -0.2718
     15  CB        17.7920   47.7700   73.4610 C.3    18  ALA18       0.0304
     16  N         17.9460   50.2380   71.0270 N.am   19  GLY19      -0.1942
     17  CA        17.5760   50.4990   69.6440 C.3    19  GLY19       0.2014
     18  C         16.4920   49.5680   69.1360 C.2    19  GLY19       0.2639
     19  O         16.5880   49.0360   68.0360 O.2    19  GLY19      -0.2714
     20  N         15.4520   49.3970   69.9440 N.am   20  LEU20      -0.1963
     21  CA        14.3230   48.5320   69.6400 C.3    20  LEU20       0.1728
     22  C         13.2000   49.1640   68.8210 C.2    20  LEU20       0.2616
     23  O         12.3310   48.4580   68.3120 O.2    20  LEU20      -0.2715
     24  CB        13.7140   48.0270   70.9460 C.3    20  LEU20       0.0311
     25  CG        14.6450   47.2510   71.8660 C.3    20  LEU20       0.0022
     26  CD1       13.9140   46.9150   73.1500 C.3    20  LEU20       0.0001
     27  CD2       15.1130   46.0000   71.1560 C.3    20  LEU20       0.0001
     28  N         13.2090   50.4850   68.6950 N.am   21  SER21      -0.1950
     29  CA        12.1440   51.1620   67.9860 C.3    21  SER21       0.1924
     30  C         12.4700   51.7730   66.6350 C.2    21  SER21       0.2314
     31  O         12.7830   52.9610   66.5330 O.2    21  SER21      -0.2863
     32  CB        11.5390   52.2350   68.8950 C.3    21  SER21       0.2116
     33  OG        10.9490   51.6540   70.0480 O.3    21  SER21      -0.2180
     34  N         11.8220   55.4130   65.4510 N.3    24  ASN24      -0.1240
     35  CA        12.1200   56.2900   66.5740 C.3    24  ASN24       0.1653
     36  C         13.6220   56.5060   66.4010 C.2    24  ASN24       0.2266
     37  O         14.4280   55.7010   66.8630 O.2    24  ASN24      -0.2867
     38  CB        11.8410   55.5730   67.8970 C.3    24  ASN24       0.1155
     39  CG        12.2840   56.3790   69.1160 C.2    24  ASN24       0.2627
     40  OD1       11.7190   56.0500   70.2700 O.2    24  ASN24      -0.2716
     41  ND2       13.1360   57.2730   69.0250 N.am   24  ASN24      -0.0877
     42  N         16.0080   56.4370   69.5220 N.3    27  SER27      -0.1217
     43  CA        16.2360   55.0790   69.9680 C.3    27  SER27       0.1889
     44  C         17.3030   54.3960   69.1150 C.2    27  SER27       0.2288
     45  O         18.2200   53.7580   69.6330 O.2    27  SER27      -0.2866
     46  CB        14.9200   54.3130   69.8890 C.3    27  SER27       0.2089
     47  OG        15.0890   52.9190   70.0920 O.3    27  SER27      -0.2183
     48  N         13.0290   46.2230   78.9940 N.3   101  SER101     -0.1217
     49  CA        12.9520   47.6490   78.6900 C.3   101  SER101      0.1889
     50  C         12.1270   48.4140   79.7150 C.2   101  SER101      0.2288
     51  O         11.1160   47.9130   80.2040 O.2   101  SER101     -0.2866
     52  CB        12.3340   47.8600   77.3000 C.3   101  SER101      0.2089
     53  OG        12.1670   49.2370   77.0040 O.3   101  SER101     -0.2183
     54  N         10.5390   50.9380   78.9920 N.3   103  SER103     -0.1217
     55  CA         9.6310   51.6660   78.1130 C.3   103  SER103      0.1889
     56  C          8.2870   52.0990   78.7150 C.2   103  SER103      0.2288
     57  O          7.7590   53.1500   78.3500 O.2   103  SER103     -0.2866
     58  CB         9.3890   50.8440   76.8500 C.3   103  SER103      0.2089
     59  OG         8.6720   49.6710   77.1700 O.3   103  SER103     -0.2183
     60  N          7.0570   55.7590   79.5270 N.3   106  TRP106     -0.1241
     61  CA         6.3930   56.7210   78.6570 C.3   106  TRP106      0.1605
     62  C          4.8960   56.4910   78.6800 C.2   106  TRP106      0.2264
     63  O          4.3170   55.9900   77.7170 O.2   106  TRP106     -0.2867
     64  CB         6.9430   56.6060   77.2370 C.3   106  TRP106      0.0550
     65  CG         8.3900   56.9520   77.1810 C.ar  106  TRP106      0.0003
     66  CD1        8.9460   58.1630   77.4620 C.ar  106  TRP106      0.0946
     67  CD2        9.4800   56.0720   76.8780 C.ar  106  TRP106      0.0152
     68  NE1       10.3120   58.0940   77.3580 N.ar  106  TRP106     -0.2442
     69  CE2       10.6680   56.8220   77.0030 C.ar  106  TRP106      0.0810
     70  CE3        9.5700   54.7190   76.5240 C.ar  106  TRP106      0.0012
     71  CZ2       11.9320   56.2690   76.7760 C.ar  106  TRP106      0.0191
     72  CZ3       10.8350   54.1670   76.3020 C.ar  106  TRP106      0.0001
     73  CH2       11.9930   54.9430   76.4320 C.ar  106  TRP106      0.0015
     74  N          2.4970   58.2770   78.1830 N.3   108  ALA108     -0.1231
     75  CA         1.6790   58.9910   77.2110 C.3   108  ALA108      0.1694
     76  C          1.0800   57.9290   76.2930 C.2   108  ALA108      0.2592
     77  O          0.0610   58.1590   75.6380 O.2   108  ALA108     -0.2718
     78  CB         2.5290   59.9500   76.4070 C.3   108  ALA108      0.0304
     79  N          1.7300   56.7630   76.2590 N.am  109  ASN109     -0.1974
     80  CA         1.2780   55.6390   75.4350 C.3   109  ASN109      0.1688
     81  C          0.5500   54.5900   76.2770 C.2   109  ASN109      0.2292
     82  O          0.1660   53.5330   75.7680 O.2   109  ASN109     -0.2864
     83  CB         2.4660   54.9570   74.7490 C.3   109  ASN109      0.1181
     84  CG         3.2790   55.9090   73.9090 C.2   109  ASN109      0.2629
     85  OD1        4.3300   56.3970   74.3400 O.2   109  ASN109     -0.2716
     86  ND2        2.7910   56.1950   72.7060 N.am  109  ASN109     -0.0877
     87  N          8.5720   44.8190   72.4440 N.3   136  HIS136     -0.1226
     88  CA         8.9400   45.1590   73.8160 C.3   136  HIS136      0.1752
     89  C          7.8840   46.0290   74.5020 C.2   136  HIS136      0.2595
     90  O          7.6770   45.9330   75.7100 O.2   136  HIS136     -0.2718
     91  CB        10.3370   45.8160   73.8750 C.3   136  HIS136      0.0759
     92  CG        10.4320   47.1610   73.2100 C.ar  136  HIS136      0.0818
     93  ND1       10.3460   47.3310   71.8460 N.ar  136  HIS136     -0.2268
     94  CD2       10.6460   48.3960   73.7280 C.ar  136  HIS136      0.1154
     95  CE1       10.5040   48.6100   71.5510 C.ar  136  HIS136      0.1986
     96  NE2       10.6870   49.2780   72.6740 N.ar  136  HIS136     -0.2212
     97  N          7.2000   46.8550   73.7200 N.am  137  ARG137     -0.1980
     98  CA         6.1590   47.7230   74.2480 C.3   137  ARG137      0.1597
     99  C          4.8140   46.9930   74.3930 C.2   137  ARG137      0.2287
    100  O          4.0640   47.2590   75.3330 O.2   137  ARG137     -0.2864
    101  CB         6.0130   48.9420   73.3360 C.3   137  ARG137      0.0334
    102  CG         7.2070   49.8840   73.3970 C.3   137  ARG137      0.0492
    103  CD         7.0600   50.8180   74.5680 C.3   137  ARG137      0.2205
    104  NE         6.7470   52.1750   74.1390 N.pl3 137  ARG137     -0.0865
    105  CZ         6.1120   53.0720   74.8860 C.cat 137  ARG137      0.5346
    106  NH1        5.7060   52.7640   76.1070 N.pl3 137  ARG137      0.1354
    107  NH2        5.8940   54.2830   74.4090 N.pl3 137  ARG137      0.1354
    108  N         -0.7460   59.4660   73.2420 N.3   176  ALA176     -0.1245
    109  CA         0.2790   60.1260   72.4340 C.3   176  ALA176      0.1562
    110  C         -0.2520   60.5550   71.0670 C.2   176  ALA176      0.2260
    111  O          0.3310   61.4240   70.4160 O.2   176  ALA176     -0.2867
    112  CB         1.4770   59.2110   72.2760 C.3   176  ALA176      0.0290
    113  N          2.3470   53.3930   63.5140 N.3   211  ARG211     -0.1245
    114  CA         1.9070   52.5520   64.6270 C.3   211  ARG211      0.1563
    115  C          0.4060   52.6130   64.9450 C.2   211  ARG211      0.2260
    116  O         -0.1580   51.6430   65.4320 O.2   211  ARG211     -0.2867
    117  CB         2.6910   52.8960   65.9030 C.3   211  ARG211      0.0307
    118  CG         4.1920   53.0910   65.7410 C.3   211  ARG211      0.0489
    119  CD         4.8810   52.9270   67.0950 C.3   211  ARG211      0.2205
    120  NE         6.2600   53.3830   67.1000 N.pl3 211  ARG211     -0.0865
    121  CZ         7.0360   53.3980   68.1810 C.cat 211  ARG211      0.5346
    122  NH1        6.5790   52.9820   69.3510 N.pl3 211  ARG211      0.1354
    123  NH2        8.2790   53.8360   68.0930 N.pl3 211  ARG211      0.1354
    124  N          6.9570   59.3530   65.0830 N.3   246  PHE246     -0.1227
    125  CA         6.2510   58.0900   65.3150 C.3   246  PHE246      0.1736
    126  C          4.9800   58.2100   66.1550 C.2   246  PHE246      0.2595
    127  O          4.1800   57.2800   66.2060 O.2   246  PHE246     -0.2718
    128  CB         7.2090   57.0330   65.9110 C.3   246  PHE246      0.0547
    129  CG         7.9740   57.4970   67.1160 C.ar  246  PHE246     -0.0202
    130  CD1        7.4900   57.2640   68.3970 C.ar  246  PHE246     -0.0042
    131  CD2        9.1750   58.1950   66.9680 C.ar  246  PHE246     -0.0042
    132  CE1        8.1900   57.7220   69.5220 C.ar  246  PHE246     -0.0003
    133  CE2        9.8840   58.6560   68.0780 C.ar  246  PHE246     -0.0003
    134  CZ         9.3910   58.4220   69.3620 C.ar  246  PHE246     -0.0000
    135  N          4.8030   59.3480   66.8190 N.am  247  HIS247     -0.1975
    136  CA         3.5910   59.6210   67.6100 C.3   247  HIS247      0.1656
    137  C          3.2350   61.0670   67.2760 C.2   247  HIS247      0.2291
    138  O          4.1190   61.8590   66.9420 O.2   247  HIS247     -0.2864
    139  CB         3.8280   59.5280   69.1300 C.3   247  HIS247      0.0771
    140  CG         4.0630   58.1400   69.6440 C.ar  247  HIS247      0.0820
    141  ND1        5.0680   57.8430   70.5410 N.ar  247  HIS247     -0.2267
    142  CD2        3.4250   56.9710   69.3930 C.ar  247  HIS247      0.1154
    143  CE1        5.0410   56.5510   70.8140 C.ar  247  HIS247      0.1986
    144  NE2        4.0540   55.9990   70.1310 N.ar  247  HIS247     -0.2212
    145  N          2.4140   63.3450   69.2640 N.3   249  ASP249     -0.1225
    146  CA         3.0050   64.1940   70.2890 C.3   249  ASP249      0.1805
    147  C          4.4650   64.5690   70.0190 C.2   249  ASP249      0.2597
    148  O          5.1510   65.1080   70.8970 O.2   249  ASP249     -0.2718
    149  CB         2.8910   63.4920   71.6450 C.3   249  ASP249      0.1424
    150  CG         3.8080   62.2810   71.7570 C.2   249  ASP249      0.3668
    151  OD1        4.4710   61.9260   70.7530 O.co2 249  ASP249     -0.2456
    152  OD2        3.8640   61.6860   72.8540 O.co2 249  ASP249     -0.2456
    153  N          4.9410   64.2620   68.8180 N.am  250  VAL250     -0.1980
    154  CA         6.3000   64.5980   68.4420 C.3   250  VAL250      0.1595
    155  C          6.2170   65.7140   67.3940 C.2   250  VAL250      0.2287
    156  O          7.2360   66.2410   66.9320 O.2   250  VAL250     -0.2864
    157  CB         7.0560   63.3440   67.9080 C.3   250  VAL250      0.0276
    158  CG1        8.4420   63.7290   67.3510 C.3   250  VAL250      0.0022
    159  CG2        7.2430   62.3320   69.0590 C.3   250  VAL250      0.0022
    160  N          7.0340   67.8710   71.7110 N.3   305  ASN305     -0.1240
    161  CA         6.7370   66.8350   72.7000 C.3   305  ASN305      0.1653
    162  C          6.7800   67.5400   74.0390 C.2   305  ASN305      0.2266
    163  O          7.1640   66.9750   75.0600 O.2   305  ASN305     -0.2867
    164  CB         7.7550   65.6970   72.7060 C.3   305  ASN305      0.1155
    165  CG         7.2790   64.5140   73.5400 C.2   305  ASN305      0.2627
    166  OD1        7.9800   64.0290   74.4340 O.2   305  ASN305     -0.2716
    167  ND2        6.0720   64.0460   73.2470 N.am  305  ASN305     -0.0877
    168  N         16.1130   57.9850   74.2580 N.3   358  ASN358     -0.1225
    169  CA        15.2900   56.8880   73.7700 C.3   358  ASN358      0.1785
    170  C         14.0180   57.3850   73.0840 C.2   358  ASN358      0.2597
    171  O         13.0640   56.6270   72.8810 O.2   358  ASN358     -0.2718
    172  CB        14.9430   55.8990   74.8840 C.3   358  ASN358      0.1169
    173  CG        15.5740   54.5220   74.6520 C.2   358  ASN358      0.2627
    174  OD1       16.0050   54.2070   73.5470 O.2   358  ASN358     -0.2716
    175  ND2       15.6230   53.7050   75.6900 N.am  358  ASN358     -0.0877
    176  N         14.0120   58.6700   72.7300 N.am  359  GLY359     -0.1957
    177  CA        12.8880   59.2470   72.0150 C.3   359  GLY359      0.1869
    178  C         11.7230   59.7770   72.8240 C.2   359  GLY359      0.2309
    179  O         10.6160   59.9110   72.3000 O.2   359  GLY359     -0.2863
    180  N          5.9340   62.7840   76.6580 N.3   364  SER364     -0.1217
    181  CA         5.9370   61.3230   76.5740 C.3   364  SER364      0.1889
    182  C          5.9170   60.6670   77.9540 C.2   364  SER364      0.2288
    183  O          5.4460   59.5360   78.1070 O.2   364  SER364     -0.2866
    184  CB         7.1650   60.8230   75.8140 C.3   364  SER364      0.2089
    185  OG         8.3190   60.8830   76.6360 O.3   364  SER364     -0.2183
@<TRIPOS>BOND
     1   113   114    1
     2   114   115    1
     3   114   117    1
     4   115   116    2
     5   124   125    1
     6   125   128    1
     7   125   126    1
     8    34    35    1
     9   118   117    1
    10   118   119    1
    11   128   129    1
    12   126   127    2
    13   126   135   am
    14    36    35    1
    15    36    37    2
    16    31    30    2
    17    35    38    1
    18    30    29    1
    19   135   136    1
    20   156   155    2
    21   138   137    2
    22   131   129   ar
    23   131   133   ar
    24   119   120    1
    25   120   121    2
    26   129   130   ar
    27   137   136    1
    28   158   157    1
    29   155   154    1
    30   136   139    1
    31    38    39    1
    32   157   154    1
    33   157   159    1
    34    29    28    1
    35    29    32    1
    36    19    18    2
    37   133   134   ar
    38   123   121    1
    39   121   122    1
    40    23    22    2
    41   130   132   ar
    42   154   153    1
    43    28    22   am
    44   153   147   am
    45    22    21    1
    46    32    33    1
    47    41    39   am
    48    44    45    2
    49    44    43    1
    50    39    40    2
    51   139   140    1
    52    18    17    1
    53    18    20   am
    54   145   146    1
    55   134   132   ar
    56   142   140   ar
    57   142   144   ar
    58    42    43    1
    59    21    20    1
    60    21    24    1
    61    17    16    1
    62   140   141   ar
    63    46    43    1
    64    46    47    1
    65   147   146    1
    66   147   148    2
    67   144   143   ar
    68   146   149    1
    69   111   110    2
    70   141   143   ar
    71    14    13    2
    72   151   150   ar
    73    24    25    1
    74    16    13   am
    75   110   109    1
    76    27    25    1
    77    13    12    1
    78    95    93   ar
    79    95    96   ar
    80   149   150    1
    81   160   161    1
    82   150   152   ar
    83    93    92   ar
    84    25    26    1
    85   177   176    1
    86   177   178    1
    87   112   109    1
    88   179   178    2
    89   109   108    1
    90    87    88    1
    91    96    94   ar
    92   161   164    1
    93   161   162    1
    94    86    84   am
    95   164   165    1
    96   176   170   am
    97    12    15    1
    98    12    11    1
    99   171   170    2
   100   170   169    1
   101    92    94   ar
   102    92    91    1
   103   167   165   am
   104   101   102    1
   105   101    98    1
   106   102   103    1
   107   165   166    2
   108   174   173    2
   109    97    98    1
   110    97    89   am
   111   169   168    1
   112   169   172    1
   113    88    91    1
   114    88    89    1
   115    84    85    2
   116    84    83    1
   117   162   163    2
   118   104   103    1
   119   104   105    2
   120    98    99    1
   121    99   100    2
   122   107   105    1
   123    89    90    2
   124   173   172    1
   125   173   175   am
   126    83    80    1
   127   105   106    1
   128    80    79    1
   129    80    81    1
   130    77    76    2
   131    82    81    2
   132   184   181    1
   133   184   185    1
   134    79    76   am
   135    76    75    1
   136    72    73   ar
   137    72    70   ar
   138    78    75    1
   139    73    71   ar
   140    70    67   ar
   141   181   180    1
   142   181   182    1
   143    71    69   ar
   144    58    59    1
   145    58    55    1
   146    67    69   ar
   147    67    65   ar
   148    69    68   ar
   149    53    52    1
   150    10     8   ar
   151    10     9   ar
   152     4     3    2
   153     8     6   ar
   154    65    64    1
   155    65    66   ar
   156    75    74    1
   157    64    61    1
   158    52    49    1
   159    68    66   ar
   160     3     2    1
   161    63    62    2
   162   182   183    2
   163    55    56    1
   164    55    54    1
   165     9     7   ar
   166    57    56    2
   167     6     7   ar
   168     6     5    1
   169    61    62    1
   170    61    60    1
   171    49    48    1
   172    49    50    1
   173     2     5    1
   174     2     1    1
   175    50    51    2
