@<TRIPOS>MOLECULE
tmp/1ynkB00.pdb
 87 84 0 0 0
SMALL
GASTEIGER

@<TRIPOS>ATOM
      1  N        -32.7810  -75.3090   50.7800 N.3    33  TRP33      -0.1241
      2  CA       -31.6110  -75.3440   49.8790 C.3    33  TRP33       0.1605
      3  C        -30.3030  -75.2350   50.6750 C.2    33  TRP33       0.2264
      4  O        -30.2930  -74.6470   51.7610 O.2    33  TRP33      -0.2867
      5  CB       -31.7150  -74.2050   48.9250 C.3    33  TRP33       0.0550
      6  CG       -32.9740  -74.2970   48.2180 C.ar   33  TRP33       0.0003
      7  CD1      -34.2210  -73.9270   48.6600 C.ar   33  TRP33       0.0946
      8  CD2      -33.1440  -74.8010   46.8980 C.ar   33  TRP33       0.0152
      9  NE1      -35.1470  -74.1800   47.6910 N.ar   33  TRP33      -0.2442
     10  CE2      -34.5190  -74.7210   46.5960 C.ar   33  TRP33       0.0810
     11  CE3      -32.2760  -75.3090   45.9500 C.ar   33  TRP33       0.0012
     12  CZ2      -35.0370  -75.1600   45.3700 C.ar   33  TRP33       0.0191
     13  CZ3      -32.7910  -75.7210   44.6960 C.ar   33  TRP33       0.0001
     14  CH2      -34.1420  -75.6460   44.4430 C.ar   33  TRP33       0.0015
     15  N        -26.7110  -73.7280   49.6170 N.3    35  GLU35      -0.1301
     16  CA       -26.0230  -72.8870   48.6630 C.3    35  GLU35       0.1252
     17  C        -24.5800  -73.0990   48.8720 C.3    35  GLU35       0.2009
     18  O        -24.0580  -73.3630   50.0610 O.3    35  GLU35      -0.2188
     19  CB       -26.3530  -71.3920   48.9900 C.3    35  GLU35       0.0335
     20  CG       -27.8290  -71.1510   49.3670 C.3    35  GLU35       0.1156
     21  CD       -28.7340  -71.2040   48.1290 C.2    35  GLU35       0.3649
     22  OE1      -28.2300  -70.6940   47.0880 O.co2  35  GLU35      -0.2457
     23  OE2      -29.8860  -71.7870   48.1460 O.co2  35  GLU35      -0.2457
     24  N        -26.9240  -74.0500   44.2390 N.3    50  GLU50      -0.1301
     25  CA       -27.7310  -74.5470   45.2590 C.3    50  GLU50       0.1252
     26  C        -28.2820  -75.8870   44.9140 C.3    50  GLU50       0.2009
     27  O        -28.5780  -76.2190   43.6860 O.3    50  GLU50      -0.2188
     28  CB       -28.9020  -73.5390   45.5520 C.3    50  GLU50       0.0335
     29  CG       -29.8880  -73.2870   44.3590 C.3    50  GLU50       0.1156
     30  CD       -30.9040  -72.3340   44.7550 C.2    50  GLU50       0.3649
     31  OE1      -31.0190  -72.0100   45.9670 O.co2  50  GLU50      -0.2457
     32  OE2      -31.5070  -71.8520   43.8310 O.co2  50  GLU50      -0.2457
     33  N        -33.3300  -80.9220   43.0710 N.3    57  ARG57      -0.1245
     34  CA       -33.4770  -79.7820   42.2770 C.3    57  ARG57       0.1563
     35  C        -32.1220  -79.1500   42.5790 C.2    57  ARG57       0.2260
     36  O        -31.6830  -79.1010   43.7430 O.2    57  ARG57      -0.2867
     37  CB       -34.6210  -78.8630   42.8020 C.3    57  ARG57       0.0307
     38  CG       -35.9940  -78.9430   42.0840 C.3    57  ARG57       0.0489
     39  CD       -36.6420  -77.5560   41.6080 C.3    57  ARG57       0.2205
     40  NE       -35.6670  -76.6520   40.9780 N.pl3  57  ARG57      -0.0865
     41  CZ       -35.0450  -76.9180   39.8160 C.cat  57  ARG57       0.5346
     42  NH1      -35.3750  -78.0430   39.1230 N.pl3  57  ARG57       0.1354
     43  NH2      -34.0940  -76.0940   39.3660 N.pl3  57  ARG57       0.1354
     44  N        -29.8290  -75.4900   41.2690 N.3    59  ASN59      -0.1296
     45  CA       -29.3450  -74.4000   40.4160 C.3    59  ASN59       0.1339
     46  C        -27.8360  -74.2210   40.5190 C.3    59  ASN59       0.2014
     47  O        -27.2120  -74.1370   41.6430 O.3    59  ASN59      -0.2188
     48  CB       -29.9920  -73.0480   40.7630 C.3    59  ASN59       0.1102
     49  CG       -31.5760  -73.0750   40.7030 C.2    59  ASN59       0.2623
     50  OD1      -32.1880  -73.2870   39.6220 O.2    59  ASN59      -0.2716
     51  ND2      -32.2200  -72.9000   41.8690 N.am   59  ASN59      -0.0877
     52  N        -30.2070  -72.1410   52.5680 N.3    99  GLY99      -0.1210
     53  CA       -30.8810  -71.0890   51.7350 C.3    99  GLY99       0.1956
     54  C        -32.3700  -71.2940   51.7710 C.2    99  GLY99       0.2612
     55  O        -32.7940  -72.3720   51.9060 O.2    99  GLY99      -0.2717
     56  N        -33.1890  -70.2390   51.6800 N.am  100  TYR100     -0.1962
     57  CA       -34.6290  -70.4570   51.4960 C.3   100  TYR100      0.1771
     58  C        -35.0310  -69.2390   50.7740 C.2   100  TYR100      0.2620
     59  O        -35.2700  -69.2750   49.5530 O.2   100  TYR100     -0.2715
     60  CB       -35.4980  -70.6950   52.8330 C.3   100  TYR100      0.0574
     61  CG       -36.9430  -70.7390   52.4890 C.ar  100  TYR100     -0.0198
     62  CD1      -37.4690  -71.8680   51.9050 C.ar  100  TYR100     -0.0009
     63  CD2      -37.7340  -69.6270   52.5840 C.ar  100  TYR100     -0.0009
     64  CE1      -38.8100  -71.9240   51.4910 C.ar  100  TYR100      0.0417
     65  CE2      -39.1050  -69.6620   52.1490 C.ar  100  TYR100      0.0417
     66  CZ       -39.6100  -70.8270   51.6140 C.ar  100  TYR100      0.1957
     67  OH       -40.9130  -70.9340   51.1310 O.3   100  TYR100     -0.2866
     68  N        -35.0640  -68.1300   51.4920 N.am  101  SER101     -0.1936
     69  CA       -35.2070  -66.8700   50.7660 C.3   101  SER101      0.2055
     70  C        -33.9660  -66.0180   50.8930 C.2   101  SER101      0.2644
     71  O        -33.6890  -65.2640   50.0140 O.2   101  SER101     -0.2714
     72  CB       -36.5230  -66.1090   51.1080 C.3   101  SER101      0.2130
     73  OG       -36.4900  -65.4520   52.3670 O.3   101  SER101     -0.2179
     74  N        -33.2160  -66.1840   51.9940 N.am  102  SER102     -0.1935
     75  CA       -31.8560  -65.6940   52.0770 C.3   102  SER102      0.2055
     76  C        -30.8940  -66.8780   52.3250 C.2   102  SER102      0.2642
     77  O        -31.2790  -68.0660   52.2400 O.2   102  SER102     -0.2714
     78  CB       -31.7340  -64.7320   53.2800 C.3   102  SER102      0.2130
     79  OG       -32.3660  -65.2390   54.4370 O.3   102  SER102     -0.2179
     80  N        -29.6820  -66.5540   52.7900 N.am  103  MET103     -0.1976
     81  CA       -28.7100  -67.5490   53.0720 C.3   103  MET103      0.1605
     82  C        -28.4710  -67.3070   54.5320 C.2   103  MET103      0.2287
     83  O        -27.6380  -66.5550   54.9200 O.2   103  MET103     -0.2864
     84  CB       -27.4670  -67.3370   52.2010 C.3   103  MET103      0.0413
     85  CG       -27.7870  -67.3210   50.6940 C.3   103  MET103      0.0598
     86  SD       -26.2370  -67.4180   49.7730 S.3   103  MET103     -0.1393
     87  CE       -26.7830  -67.0030   48.0890 C.3   103  MET103      0.0692
@<TRIPOS>BOND
     1    42    41    1
     2    43    41    1
     3    50    49    2
     4    41    40    2
     5    45    46    1
     6    45    48    1
     7    45    44    1
     8    46    47    1
     9    49    48    1
    10    49    51   am
    11    40    39    1
    12    39    38    1
    13    38    37    1
    14    34    35    1
    15    34    37    1
    16    34    33    1
    17    35    36    2
    18    27    26    1
    19    32    30   ar
    20    24    25    1
    21    29    30    1
    22    29    28    1
    23    14    13   ar
    24    14    12   ar
    25    13    11   ar
    26    30    31   ar
    27    26    25    1
    28    25    28    1
    29    12    10   ar
    30    11     8   ar
    31    10     8   ar
    32    10     9   ar
    33     8     6   ar
    34    22    21   ar
    35     9     7   ar
    36    87    86    1
    37    21    23   ar
    38    21    20    1
    39     6     7   ar
    40     6     5    1
    41    16    17    1
    42    16    19    1
    43    16    15    1
    44    17    18    1
    45     5     2    1
    46    19    20    1
    47    59    58    2
    48    86    85    1
    49     2     3    1
    50     2     1    1
    51    71    70    2
    52     3     4    2
    53    85    84    1
    54    69    70    1
    55    69    72    1
    56    69    68    1
    57    58    68   am
    58    58    57    1
    59    70    74   am
    60    72    73    1
    61    67    66    1
    62    64    66   ar
    63    64    62   ar
    64    57    56    1
    65    57    60    1
    66    66    65   ar
    67    56    54   am
    68    53    54    1
    69    53    52    1
    70    54    55    2
    71    62    61   ar
    72    74    75    1
    73    75    76    1
    74    75    78    1
    75    65    63   ar
    76    84    81    1
    77    77    76    2
    78    76    80   am
    79    61    63   ar
    80    61    60    1
    81    80    81    1
    82    81    82    1
    83    78    79    1
    84    82    83    2
