@<TRIPOS>MOLECULE
tmp/1ynkA00.pdb
 90 87 0 0 0
SMALL
GASTEIGER

@<TRIPOS>ATOM
      1  N        -39.6760  -60.0580   43.2120 N.3    31  HIS31      -0.1241
      2  CA       -39.9220  -61.3710   42.6420 C.3    31  HIS31       0.1621
      3  C        -41.3710  -61.4680   42.1130 C.2    31  HIS31       0.2264
      4  O        -42.1710  -60.6730   42.5230 O.2    31  HIS31      -0.2867
      5  CB       -39.6850  -62.4270   43.6780 C.3    31  HIS31       0.0745
      6  CG       -39.7710  -63.8170   43.1600 C.ar   31  HIS31       0.0817
      7  ND1      -38.6840  -64.4850   42.6290 N.ar   31  HIS31      -0.2268
      8  CD2      -40.7980  -64.6900   43.1320 C.ar   31  HIS31       0.1154
      9  CE1      -39.0470  -65.7140   42.3080 C.ar   31  HIS31       0.1986
     10  NE2      -40.3310  -65.8530   42.5860 N.ar   31  HIS31      -0.2212
     11  N        -43.4480  -63.5240   43.0320 N.3    33  ASN33      -0.1240
     12  CA       -44.2600  -63.7100   44.2490 C.3    33  ASN33       0.1653
     13  C        -44.5500  -62.3680   45.0090 C.2    33  ASN33       0.2266
     14  O        -45.2640  -62.3400   46.0020 O.2    33  ASN33      -0.2867
     15  CB       -43.7110  -64.8310   45.1650 C.3    33  ASN33       0.1155
     16  CG       -42.5000  -64.4290   45.8900 C.2    33  ASN33       0.2627
     17  OD1      -42.1810  -63.2640   45.8430 O.2    33  ASN33      -0.2716
     18  ND2      -41.8070  -65.3760   46.6100 N.am   33  ASN33      -0.0877
     19  N        -36.0890  -59.8290   47.4210 N.3    37  TYR37      -0.1241
     20  CA       -35.0910  -60.6440   48.1470 C.3    37  TYR37       0.1605
     21  C        -33.7930  -59.8920   48.0870 C.2    37  TYR37       0.2264
     22  O        -32.8660  -60.2310   47.3260 O.2    37  TYR37      -0.2867
     23  CB       -34.9990  -62.0720   47.6460 C.3    37  TYR37       0.0534
     24  CG       -36.2490  -62.8350   47.8620 C.ar   37  TYR37      -0.0201
     25  CD1      -36.4770  -63.4830   49.0220 C.ar   37  TYR37      -0.0009
     26  CD2      -37.2690  -62.8040   46.9140 C.ar   37  TYR37      -0.0009
     27  CE1      -37.7060  -64.1450   49.2520 C.ar   37  TYR37       0.0417
     28  CE2      -38.4340  -63.4490   47.1160 C.ar   37  TYR37       0.0417
     29  CZ       -38.6610  -64.1200   48.2880 C.ar   37  TYR37       0.1957
     30  OH       -39.8680  -64.7810   48.4560 O.3    37  TYR37      -0.2866
     31  N        -30.9330  -58.6680   50.5940 N.3    39  HIS39      -0.1241
     32  CA       -30.5150  -58.9740   51.9800 C.3    39  HIS39       0.1621
     33  C        -29.1720  -58.3250   52.2400 C.2    39  HIS39       0.2264
     34  O        -28.5180  -57.9280   51.3280 O.2    39  HIS39      -0.2867
     35  CB       -30.3310  -60.4740   52.1330 C.3    39  HIS39       0.0745
     36  CG       -31.3930  -61.3200   51.4590 C.ar   39  HIS39       0.0817
     37  ND1      -32.7150  -61.3140   51.8500 N.ar   39  HIS39      -0.2268
     38  CD2      -31.3020  -62.2210   50.4660 C.ar   39  HIS39       0.1154
     39  CE1      -33.4080  -62.1390   51.0850 C.ar   39  HIS39       0.1986
     40  NE2      -32.5710  -62.7180   50.2480 N.ar   39  HIS39      -0.2212
     41  N        -25.4720  -58.8060   54.7210 N.3    41  TYR41      -0.1241
     42  CA       -24.6420  -59.7780   55.5200 C.3    41  TYR41       0.1605
     43  C        -23.5080  -59.0290   56.0890 C.2    41  TYR41       0.2264
     44  O        -23.1670  -58.0020   55.6440 O.2    41  TYR41      -0.2867
     45  CB       -24.0430  -60.9400   54.6470 C.3    41  TYR41       0.0534
     46  CG       -25.0940  -61.7500   54.0240 C.ar   41  TYR41      -0.0201
     47  CD1      -25.7130  -61.3240   52.8680 C.ar   41  TYR41      -0.0009
     48  CD2      -25.5480  -62.9020   54.6210 C.ar   41  TYR41      -0.0009
     49  CE1      -26.7330  -62.0220   52.3200 C.ar   41  TYR41       0.0417
     50  CE2      -26.5270  -63.6310   54.0440 C.ar   41  TYR41       0.0417
     51  CZ       -27.0910  -63.1890   52.8630 C.ar   41  TYR41       0.1957
     52  OH       -28.0900  -63.9420   52.2960 O.3    41  TYR41      -0.2866
     53  N        -27.0760  -58.3650   48.8320 N.3    94  SER94      -0.1202
     54  CA       -27.2510  -59.5440   48.0670 C.3    94  SER94       0.2020
     55  C        -28.7000  -59.5550   47.6040 C.2    94  SER94       0.2619
     56  O        -29.5930  -59.2420   48.3460 O.2    94  SER94      -0.2717
     57  CB       -26.9610  -60.7840   48.8770 C.3    94  SER94       0.2103
     58  OG       -27.1050  -61.9690   48.1690 O.3    94  SER94      -0.2182
     59  N        -28.8760  -59.9390   46.3650 N.am   95  GLN95      -0.1965
     60  CA       -30.2100  -60.1960   45.8400 C.3    95  GLN95       0.1733
     61  C        -30.4060  -61.7140   45.6660 C.2    95  GLN95       0.2616
     62  O        -29.5220  -62.4020   45.2280 O.2    95  GLN95      -0.2715
     63  CB       -30.4710  -59.3740   44.5800 C.3    95  GLN95       0.0408
     64  CG       -29.7990  -59.8660   43.3350 C.3    95  GLN95       0.0908
     65  CD       -30.3210  -61.2050   42.7610 C.2    95  GLN95       0.2608
     66  OE1      -31.4730  -61.5670   42.9140 O.2    95  GLN95      -0.2717
     67  NE2      -29.4110  -61.9810   42.1400 N.am   95  GLN95      -0.0878
     68  N        -31.4690  -62.2560   46.2380 N.am   96  GLY96      -0.1955
     69  CA       -31.8560  -63.7110   46.1460 C.3    96  GLY96       0.1869
     70  C        -33.0910  -63.8610   45.2310 C.2    96  GLY96       0.2309
     71  O        -33.7360  -64.8980   45.1820 O.2    96  GLY96      -0.2863
     72  N        -31.6510  -65.9530   39.8180 N.3    99  VAL99      -0.1245
     73  CA       -30.5440  -66.8830   39.7060 C.3    99  VAL99       0.1561
     74  C        -29.6640  -66.2710   38.5850 C.2    99  VAL99       0.2260
     75  O        -30.1870  -65.8530   37.5210 O.2    99  VAL99      -0.2867
     76  CB       -31.0130  -68.3200   39.3730 C.3    99  VAL99       0.0252
     77  CG1      -29.7760  -69.1810   38.8780 C.3    99  VAL99       0.0019
     78  CG2      -31.6630  -69.0150   40.5660 C.3    99  VAL99       0.0019
     79  N        -27.6330  -65.8010   42.4400 N.3   101  TYR101     -0.1241
     80  CA       -27.7490  -64.8780   43.4980 C.3   101  TYR101      0.1605
     81  C        -26.4280  -64.2270   43.5160 C.2   101  TYR101      0.2264
     82  O        -25.3870  -64.9190   43.4000 O.2   101  TYR101     -0.2867
     83  CB       -28.1290  -65.5180   44.8290 C.3   101  TYR101      0.0534
     84  CG       -29.3090  -66.4630   44.6030 C.ar  101  TYR101     -0.0201
     85  CD1      -30.4170  -66.0950   43.8510 C.ar  101  TYR101     -0.0009
     86  CD2      -29.2620  -67.7240   45.1080 C.ar  101  TYR101     -0.0009
     87  CE1      -31.4750  -67.0430   43.6670 C.ar  101  TYR101      0.0417
     88  CE2      -30.2850  -68.6520   44.9370 C.ar  101  TYR101      0.0417
     89  CZ       -31.3750  -68.3210   44.2200 C.ar  101  TYR101      0.1957
     90  OH       -32.2940  -69.3260   44.0590 O.3   101  TYR101     -0.2866
@<TRIPOS>BOND
     1    75    74    2
     2    74    73    1
     3    77    76    1
     4    76    73    1
     5    76    78    1
     6    73    72    1
     7     3     4    2
     8     3     2    1
     9    67    65   am
    10     9    10   ar
    11     9     7   ar
    12    79    80    1
    13    10     8   ar
    14     7     6   ar
    15     2     1    1
    16     2     5    1
    17    65    66    2
    18    65    64    1
    19    11    12    1
    20     8     6   ar
    21     6     5    1
    22    64    63    1
    23    82    81    2
    24    80    81    1
    25    80    83    1
    26    87    85   ar
    27    87    89   ar
    28    85    84   ar
    29    90    89    1
    30    89    88   ar
    31    12    13    1
    32    12    15    1
    33    63    60    1
    34    84    83    1
    35    84    86   ar
    36    88    86   ar
    37    13    14    2
    38    15    16    1
    39    71    70    2
    40    62    61    2
    41    70    69    1
    42    61    60    1
    43    61    68   am
    44    60    59    1
    45    17    16    2
    46    16    18   am
    47    69    68    1
    48    59    55   am
    49    26    28   ar
    50    26    24   ar
    51    28    29   ar
    52    22    21    2
    53    19    20    1
    54    55    54    1
    55    55    56    2
    56    23    24    1
    57    23    20    1
    58    24    25   ar
    59    54    53    1
    60    54    57    1
    61    21    20    1
    62    58    57    1
    63    29    30    1
    64    29    27   ar
    65    25    27   ar
    66    40    38   ar
    67    40    39   ar
    68    38    36   ar
    69    31    32    1
    70    39    37   ar
    71    34    33    2
    72    36    37   ar
    73    36    35    1
    74    32    35    1
    75    32    33    1
    76    52    51    1
    77    49    51   ar
    78    49    47   ar
    79    51    50   ar
    80    47    46   ar
    81    46    48   ar
    82    46    45    1
    83    50    48   ar
    84    45    42    1
    85    41    42    1
    86    42    43    1
    87    44    43    2
