@<TRIPOS>MOLECULE
tmp/1ynlB00.pdb
 87 84 0 0 0
SMALL
GASTEIGER

@<TRIPOS>ATOM
      1  N         63.6030   -9.2600   55.9880 N.3    33  TRP33      -0.1241
      2  CA        62.5180   -9.4570   56.9180 C.3    33  TRP33       0.1605
      3  C         61.1880   -9.4010   56.2010 C.2    33  TRP33       0.2264
      4  O         61.0640   -8.8300   55.1180 O.2    33  TRP33      -0.2867
      5  CB        62.5430   -8.3560   57.9650 C.3    33  TRP33       0.0550
      6  CG        63.7660   -8.3210   58.8010 C.ar   33  TRP33       0.0003
      7  CD1       65.0060   -7.8390   58.4450 C.ar   33  TRP33       0.0946
      8  CD2       63.8720   -8.7310   60.1640 C.ar   33  TRP33       0.0152
      9  NE1       65.8820   -7.9560   59.5090 N.ar   33  TRP33      -0.2442
     10  CE2       65.2110   -8.4950   60.5770 C.ar   33  TRP33       0.0810
     11  CE3       62.9730   -9.2970   61.0740 C.ar   33  TRP33       0.0012
     12  CZ2       65.6740   -8.8400   61.8580 C.ar   33  TRP33       0.0191
     13  CZ3       63.4210   -9.6010   62.3710 C.ar   33  TRP33       0.0001
     14  CH2       64.7540   -9.3820   62.7390 C.ar   33  TRP33       0.0015
     15  N         57.5800   -7.8380   57.1440 N.3    35  GLU35      -0.1245
     16  CA        56.8790   -6.9380   58.0540 C.3    35  GLU35       0.1567
     17  C         55.3800   -7.1920   57.9490 C.2    35  GLU35       0.2260
     18  O         54.8900   -7.5670   56.8810 O.2    35  GLU35      -0.2867
     19  CB        57.1190   -5.4870   57.5940 C.3    35  GLU35       0.0388
     20  CG        58.5870   -5.1770   57.3640 C.3    35  GLU35       0.1160
     21  CD        59.4050   -5.1960   58.6250 C.2    35  GLU35       0.3649
     22  OE1       59.0090   -4.5780   59.6450 O.co2  35  GLU35      -0.2457
     23  OE2       60.4980   -5.8050   58.6010 O.co2  35  GLU35      -0.2457
     24  N         57.6830   -8.0810   62.7670 N.3    50  GLU50      -0.1245
     25  CA        58.4510   -8.5790   61.6320 C.3    50  GLU50       0.1567
     26  C         59.0860   -9.9040   62.0130 C.2    50  GLU50       0.2260
     27  O         59.2950  -10.1880   63.2200 O.2    50  GLU50      -0.2867
     28  CB        59.5390   -7.5680   61.2160 C.3    50  GLU50       0.0388
     29  CG        60.5860   -7.2810   62.3180 C.3    50  GLU50       0.1160
     30  CD        61.6240   -6.2640   61.9500 C.2    50  GLU50       0.3649
     31  OE1       61.7910   -5.9550   60.7620 O.co2  50  GLU50      -0.2457
     32  OE2       62.3330   -5.8250   62.8830 O.co2  50  GLU50      -0.2457
     33  N         64.4030  -15.2360   64.3320 N.3    57  ARG57      -0.1245
     34  CA        64.3100  -13.8820   64.8770 C.3    57  ARG57       0.1563
     35  C         62.9870  -13.2100   64.5040 C.2    57  ARG57       0.2260
     36  O         62.5420  -13.2620   63.3580 O.2    57  ARG57      -0.2867
     37  CB        65.4620  -12.9900   64.3890 C.3    57  ARG57       0.0307
     38  CG        66.8820  -13.5130   64.7540 C.3    57  ARG57       0.0489
     39  CD        68.0110  -12.7550   63.9710 C.3    57  ARG57       0.2205
     40  NE        67.9830  -11.3320   64.2320 N.pl3  57  ARG57      -0.0865
     41  CZ        68.6330  -10.4020   63.5240 C.cat  57  ARG57       0.5346
     42  NH1       69.3950  -10.7410   62.4980 N.pl3  57  ARG57       0.1354
     43  NH2       68.5070   -9.1250   63.8630 N.pl3  57  ARG57       0.1354
     44  N         60.5890   -9.4390   65.8260 N.3    59  ASN59      -0.1240
     45  CA        60.2980   -8.2950   66.6850 C.3    59  ASN59       0.1653
     46  C         58.7810   -8.0840   66.6240 C.2    59  ASN59       0.2266
     47  O         58.2290   -7.9280   65.5310 O.2    59  ASN59      -0.2867
     48  CB        61.0370   -7.0350   66.2360 C.3    59  ASN59       0.1155
     49  CG        62.5630   -7.1610   66.3530 C.2    59  ASN59       0.2627
     50  OD1       63.0940   -7.3770   67.4580 O.2    59  ASN59      -0.2716
     51  ND2       63.2740   -7.0460   65.2220 N.am   59  ASN59      -0.0877
     52  N         61.1970   -6.0280   54.4250 N.3    99  GLY99      -0.1210
     53  CA        61.8420   -5.0670   55.3170 C.3    99  GLY99       0.1956
     54  C         63.3240   -5.3430   55.3990 C.2    99  GLY99       0.2612
     55  O         63.7240   -6.4820   55.2680 O.2    99  GLY99      -0.2717
     56  N         64.1140   -4.2840   55.6270 N.am  100  TYR100     -0.1962
     57  CA        65.5600   -4.4100   55.8840 C.3   100  TYR100      0.1771
     58  C         66.1700   -3.0340   55.9190 C.2   100  TYR100      0.2620
     59  O         66.8810   -2.6770   56.8760 O.2   100  TYR100     -0.2715
     60  CB        66.2540   -5.2800   54.8110 C.3   100  TYR100      0.0574
     61  CG        67.7490   -5.3760   55.0170 C.ar  100  TYR100     -0.0198
     62  CD1       68.2740   -6.2390   55.9730 C.ar  100  TYR100     -0.0009
     63  CD2       68.6070   -4.5770   54.2920 C.ar  100  TYR100     -0.0009
     64  CE1       69.6450   -6.3240   56.1900 C.ar  100  TYR100      0.0417
     65  CE2       70.0020   -4.6410   54.4860 C.ar  100  TYR100      0.0417
     66  CZ        70.5010   -5.5170   55.4390 C.ar  100  TYR100      0.1957
     67  OH        71.8580   -5.5630   55.6500 O.3   100  TYR100     -0.2866
     68  N         65.9090   -2.2490   54.8780 N.am  101  SER101     -0.1936
     69  CA        66.3780   -0.8460   54.8760 C.3   101  SER101      0.2055
     70  C         65.3350    0.0900   54.2540 C.2   101  SER101      0.2644
     71  O         65.7000    1.0890   53.6170 O.2   101  SER101     -0.2714
     72  CB        67.7190   -0.7320   54.1450 C.3   101  SER101      0.2130
     73  OG        67.6770   -1.3770   52.8710 O.3   101  SER101     -0.2179
     74  N         64.0650   -0.2860   54.4440 N.am  102  SER102     -0.1935
     75  CA        62.8200    0.3640   53.9930 C.3   102  SER102      0.2055
     76  C         61.8330   -0.7800   53.7840 C.2   102  SER102      0.2642
     77  O         62.2560   -1.9520   53.5870 O.2   102  SER102     -0.2714
     78  CB        62.9490    1.1360   52.6650 C.3   102  SER102      0.2130
     79  OG        63.4150    0.2830   51.6590 O.3   102  SER102     -0.2179
     80  N         60.5530   -0.4420   53.8010 N.am  103  MET103     -0.1976
     81  CA        59.4870   -1.3940   53.4210 C.3   103  MET103      0.1605
     82  C         59.3180   -1.2310   51.9280 C.2   103  MET103      0.2287
     83  O         58.4650   -0.4540   51.4320 O.2   103  MET103     -0.2864
     84  CB        58.2130   -1.1390   54.2000 C.3   103  MET103      0.0413
     85  CG        58.4910   -1.3050   55.7330 C.3   103  MET103      0.0598
     86  SD        57.0260   -1.1130   56.6950 S.3   103  MET103     -0.1393
     87  CE        57.6400   -1.1380   58.3770 C.3   103  MET103      0.0692
@<TRIPOS>BOND
     1    83    82    2
     2    79    78    1
     3    82    81    1
     4    78    75    1
     5    73    72    1
     6    81    80    1
     7    81    84    1
     8    77    76    2
     9    71    70    2
    10    76    80   am
    11    76    75    1
    12    75    74    1
    13    72    69    1
    14    84    85    1
    15    70    74   am
    16    70    69    1
    17    63    65   ar
    18    63    61   ar
    19    52    53    1
    20    65    66   ar
    21    60    61    1
    22    60    57    1
    23    69    68    1
    24    68    58   am
    25    61    62   ar
    26     4     3    2
    27    55    54    2
    28    53    54    1
    29    54    56   am
    30    66    67    1
    31    66    64   ar
    32    56    57    1
    33    85    86    1
    34    57    58    1
    35    58    59    2
    36    62    64   ar
    37     1     2    1
    38     3     2    1
    39    86    87    1
    40    18    17    2
    41     2     5    1
    42    15    16    1
    43    20    19    1
    44    20    21    1
    45    19    16    1
    46    17    16    1
    47     5     6    1
    48     7     6   ar
    49     7     9   ar
    50    23    21   ar
    51    21    22   ar
    52     6     8   ar
    53     9    10   ar
    54     8    10   ar
    55     8    11   ar
    56    10    12   ar
    57    31    30   ar
    58    11    13   ar
    59    28    25    1
    60    28    29    1
    61    25    26    1
    62    25    24    1
    63    12    14   ar
    64    30    29    1
    65    30    32   ar
    66    26    27    2
    67    13    14   ar
    68    42    41    1
    69    36    35    2
    70    41    43    1
    71    41    40    2
    72    39    40    1
    73    39    38    1
    74    33    34    1
    75    37    38    1
    76    37    34    1
    77    35    34    1
    78    51    49   am
    79    47    46    2
    80    44    45    1
    81    48    49    1
    82    48    45    1
    83    49    50    2
    84    46    45    1
