@<TRIPOS>MOLECULE
tmp/1ynlA00.pdb
 90 88 0 0 0
SMALL
GASTEIGER

@<TRIPOS>ATOM
      1  N         70.3530    5.1290   63.8300 N.3    31  HIS31      -0.1241
      2  CA        70.5450    3.8260   64.4430 C.3    31  HIS31       0.1621
      3  C         71.9820    3.7290   64.9560 C.2    31  HIS31       0.2264
      4  O         72.8470    4.4620   64.4850 O.2    31  HIS31      -0.2867
      5  CB        70.2950    2.7460   63.3820 C.3    31  HIS31       0.0745
      6  CG        70.2510    1.3530   63.9060 C.ar   31  HIS31       0.0817
      7  ND1       71.3870    0.5860   64.0700 N.ar   31  HIS31      -0.2268
      8  CD2       69.2120    0.5720   64.2760 C.ar   31  HIS31       0.1154
      9  CE1       71.0500   -0.6060   64.5140 C.ar   31  HIS31       0.1986
     10  NE2       69.7360   -0.6470   64.6470 N.ar   31  HIS31      -0.2212
     11  N         74.0420    1.6700   64.2040 N.3    33  ASN33      -0.1240
     12  CA        74.8540    1.3610   63.0190 C.3    33  ASN33       0.1653
     13  C         75.1630    2.5360   62.0800 C.2    33  ASN33       0.2266
     14  O         75.8780    2.3710   61.1050 O.2    33  ASN33      -0.2867
     15  CB        74.2970    0.1600   62.2460 C.3    33  ASN33       0.1155
     16  CG        73.0450    0.4820   61.4420 C.2    33  ASN33       0.2627
     17  OD1       72.6970    1.6440   61.2550 O.2    33  ASN33      -0.2716
     18  ND2       72.3690   -0.5700   60.9520 N.am   33  ASN33      -0.0877
     19  N         66.9200    5.3100   59.3630 N.3    37  TYR37      -0.1241
     20  CA        65.8450    4.5460   58.7290 C.3    37  TYR37       0.1605
     21  C         64.5670    5.3830   58.7470 C.2    37  TYR37       0.2264
     22  O         63.6700    5.1520   59.5570 O.2    37  TYR37      -0.2867
     23  CB        65.6600    3.2180   59.4610 C.3    37  TYR37       0.0534
     24  CG        66.8560    2.2940   59.3590 C.ar   37  TYR37      -0.0201
     25  CD1       67.0090    1.4300   58.2660 C.ar   37  TYR37      -0.0009
     26  CD2       67.8070    2.2590   60.3530 C.ar   37  TYR37      -0.0009
     27  CE1       68.1050    0.5610   58.1640 C.ar   37  TYR37       0.0417
     28  CE2       68.9050    1.4300   60.2680 C.ar   37  TYR37       0.0417
     29  CZ        69.0630    0.5670   59.1920 C.ar   37  TYR37       0.1957
     30  OH        70.1820   -0.2680   59.1580 O.3    37  TYR37      -0.2866
     31  N         61.7240    6.7610   55.9420 N.3    39  HIS39      -0.1241
     32  CA        61.3300    6.4200   54.5660 C.3    39  HIS39       0.1621
     33  C         60.0080    7.1180   54.2340 C.2    39  HIS39       0.2264
     34  O         59.2340    7.4250   55.1430 O.2    39  HIS39      -0.2867
     35  CB        61.1230    4.8770   54.4290 C.3    39  HIS39       0.0745
     36  CG        62.1870    4.0600   55.0960 C.ar   39  HIS39       0.0817
     37  ND1       63.5020    4.0620   54.6800 N.ar   39  HIS39      -0.2268
     38  CD2       62.1360    3.2450   56.1810 C.ar   39  HIS39       0.1154
     39  CE1       64.2130    3.2520   55.4490 C.ar   39  HIS39       0.1986
     40  NE2       63.4060    2.7330   56.3560 N.ar   39  HIS39      -0.2212
     41  N         56.4240    7.0180   51.5650 N.3    41  TYR41      -0.1241
     42  CA        55.5710    6.1430   50.7120 C.3    41  TYR41       0.1605
     43  C         54.4050    6.9400   50.1700 C.2    41  TYR41       0.2264
     44  O         53.9970    7.9410   50.7950 O.2    41  TYR41      -0.2867
     45  CB        54.9680    4.9850   51.5470 C.3    41  TYR41       0.0534
     46  CG        56.0060    4.2510   52.3510 C.ar   41  TYR41      -0.0201
     47  CD1       56.3950    4.7180   53.6050 C.ar   41  TYR41      -0.0009
     48  CD2       56.5690    3.0900   51.8730 C.ar   41  TYR41      -0.0009
     49  CE1       57.4140    4.0560   54.3590 C.ar   41  TYR41       0.0417
     50  CE2       57.5430    2.3950   52.6220 C.ar   41  TYR41       0.0417
     51  CZ        57.9640    2.8940   53.8380 C.ar   41  TYR41       0.1957
     52  OH        58.9490    2.2210   54.5720 O.3    41  TYR41      -0.2866
     53  N         57.6880    6.5370   57.3970 N.3    94  SER94      -0.1202
     54  CA        57.8530    5.4680   58.4170 C.3    94  SER94       0.2020
     55  C         59.2310    5.6440   59.0240 C.2    94  SER94       0.2619
     56  O         60.1330    6.1440   58.3560 O.2    94  SER94      -0.2717
     57  CB        57.6670    4.0480   57.8500 C.3    94  SER94       0.2103
     58  OG        58.8140    3.4950   57.2260 O.3    94  SER94      -0.2182
     59  N         59.3880    5.2510   60.2820 N.am   95  GLN95      -0.1965
     60  CA        60.7240    5.0650   60.8120 C.3    95  GLN95       0.1733
     61  C         60.9710    3.5910   61.0850 C.2    95  GLN95       0.2617
     62  O         60.0660    2.8830   61.5890 O.2    95  GLN95      -0.2715
     63  CB        60.9520    5.9170   62.0590 C.3    95  GLN95       0.0408
     64  CG        60.2040    5.5720   63.3570 C.3    95  GLN95       0.0908
     65  CD        60.8170    4.4250   64.1720 C.2    95  GLN95       0.2608
     66  OE1       62.0120    4.1070   64.0610 O.2    95  GLN95      -0.2717
     67  NE2       59.9910    3.8090   65.0010 N.am   95  GLN95      -0.0878
     68  N         62.1750    3.1450   60.7830 N.am   96  GLY96      -0.1940
     69  CA        62.5350    1.7470   61.0700 C.3    96  GLY96       0.2014
     70  C         63.7380    1.5680   61.9500 C.2    96  GLY96       0.2639
     71  O         64.3710    0.5050   61.9390 O.2    96  GLY96      -0.2714
     72  N         64.0560    2.6140   62.7050 N.am   97  THR97      -0.1950
     73  CA        65.1930    2.6020   63.6360 C.3    97  THR97       0.1897
     74  C         64.8410    1.9810   64.9770 C.2    97  THR97       0.2313
     75  O         65.6290    1.1800   65.5360 O.2    97  THR97      -0.2863
     76  CB        65.7030    4.0340   63.8420 C.3    97  THR97       0.1794
     77  OG1       66.2050    4.5040   62.6080 O.3    97  THR97      -0.2208
     78  CG2       66.8740    4.0480   64.8720 C.3    97  THR97       0.0378
     79  N         58.2730   -0.0870   64.8650 N.3   101  TYR101     -0.1241
     80  CA        58.3180    0.8230   63.7430 C.3   101  TYR101      0.1605
     81  C         57.0160    1.5840   63.7010 C.2   101  TYR101      0.2264
     82  O         55.9880    1.0630   64.0320 O.2   101  TYR101     -0.2867
     83  CB        58.5990    0.0810   62.4380 C.3   101  TYR101      0.0534
     84  CG        59.8480   -0.7930   62.5330 C.ar  101  TYR101     -0.0201
     85  CD1       60.8910   -0.5020   63.4340 C.ar  101  TYR101     -0.0009
     86  CD2       59.9860   -1.8950   61.7060 C.ar  101  TYR101     -0.0009
     87  CE1       62.0120   -1.3320   63.5200 C.ar  101  TYR101      0.0417
     88  CE2       61.0660   -2.7260   61.7800 C.ar  101  TYR101      0.0417
     89  CZ        62.1020   -2.4440   62.6850 C.ar  101  TYR101      0.1957
     90  OH        63.2130   -3.2910   62.7420 O.3   101  TYR101     -0.2866
@<TRIPOS>BOND
     1    43    42    1
     2    43    44    2
     3    42    45    1
     4    42    41    1
     5    45    46    1
     6    48    46   ar
     7    48    50   ar
     8    46    47   ar
     9    50    51   ar
    10    47    49   ar
    11    51    49   ar
    12    51    52    1
    13    33    32    1
    14    33    34    2
    15    35    32    1
    16    35    36    1
    17    32    31    1
    18    37    36   ar
    19    37    39   ar
    20    36    38   ar
    21    39    40   ar
    22    38    40   ar
    23    58    57    1
    24    53    54    1
    25    57    54    1
    26    27    25   ar
    27    27    29   ar
    28    25    24   ar
    29    56    55    2
    30    54    55    1
    31    20    21    1
    32    20    19    1
    33    20    23    1
    34    21    22    2
    35    55    59   am
    36    30    29    1
    37    29    28   ar
    38    24    23    1
    39    24    26   ar
    40    28    26   ar
    41    59    60    1
    42    68    69    1
    43    68    61   am
    44    60    61    1
    45    60    63    1
    46    18    16   am
    47    69    70    1
    48    61    62    2
    49    14    13    2
    50    17    16    2
    51    16    15    1
    52    86    88   ar
    53    86    84   ar
    54    88    89   ar
    55    71    70    2
    56    70    72   am
    57    63    64    1
    58    13    12    1
    59    15    12    1
    60    83    84    1
    61    83    80    1
    62    84    85   ar
    63    77    76    1
    64    89    90    1
    65    89    87   ar
    66    72    73    1
    67    12    11    1
    68    64    65    1
    69     5     6    1
    70     5     2    1
    71    85    87   ar
    72    73    76    1
    73    73    74    1
    74    81    80    1
    75    81    82    2
    76    80    79    1
    77     1     2    1
    78    76    78    1
    79     6     7   ar
    80     6     8   ar
    81    66    65    2
    82     7     9   ar
    83    65    67   am
    84     8    10   ar
    85     2     3    1
    86     4     3    2
    87     9    10   ar
    88    74    75    2
