@<TRIPOS>MOLECULE
tmp/1ynqB01.pdb
 210 198 0 0 0
SMALL
GASTEIGER

@<TRIPOS>ATOM
      1  N          7.6900   53.9850    8.7220 N.3    20  GLY20      -0.1210
      2  CA         8.3850   52.8520    9.3490 C.3    20  GLY20       0.1956
      3  C          9.7610   53.3320    9.7570 C.2    20  GLY20       0.2612
      4  O         10.4960   53.8730    8.9210 O.2    20  GLY20      -0.2717
      5  N         10.1190   53.1050   11.0110 N.am   21  CYS21      -0.1956
      6  CA        11.3410   53.6430   11.5680 C.3    21  CYS21       0.1843
      7  C         12.5660   52.7380   11.4330 C.2    21  CYS21       0.2625
      8  O         13.6840   53.1380   11.8090 O.2    21  CYS21      -0.2714
      9  CB        11.1100   53.9250   13.0540 C.3    21  CYS21       0.0997
     10  SG         9.8970   55.2270   13.3530 S.3    21  CYS21      -0.0797
     11  N         12.3860   51.5400   10.8770 N.am   22  MET22      -0.1963
     12  CA        13.4330   50.5300   10.9540 C.3    22  MET22       0.1736
     13  C         14.7290   50.8980   10.2450 C.2    22  MET22       0.2617
     14  O         15.7820   50.3900   10.6300 O.2    22  MET22      -0.2715
     15  CB        12.9030   49.2010   10.4520 C.3    22  MET22       0.0427
     16  CG        13.7290   47.9730   10.7840 C.3    22  MET22       0.0599
     17  SD        12.9130   46.4800   10.2300 S.3    22  MET22      -0.1393
     18  CE        13.3660   46.5600    8.5090 C.3    22  MET22       0.0692
     19  N         14.6590   51.7480    9.2250 N.am   23  SER23      -0.1950
     20  CA        15.8510   52.0710    8.4390 C.3    23  SER23       0.1924
     21  C         16.4800   53.4150    8.7870 C.2    23  SER23       0.2314
     22  O         17.2900   53.9480    8.0090 O.2    23  SER23      -0.2863
     23  CB        15.5130   52.0070    6.9420 C.3    23  SER23       0.2116
     24  OG        15.1220   50.6870    6.6160 O.3    23  SER23      -0.2180
     25  N          5.9470   53.7560   13.1540 N.3    47  ASP47      -0.1239
     26  CA         6.0410   52.3490   13.4990 C.3    47  ASP47       0.1674
     27  C          7.4700   51.9780   13.8740 C.2    47  ASP47       0.2266
     28  O          8.3760   52.1360   13.0630 O.2    47  ASP47      -0.2867
     29  CB         5.5430   51.4930   12.3480 C.3    47  ASP47       0.1410
     30  CG         5.6350   50.0320   12.6700 C.2    47  ASP47       0.3668
     31  OD1        4.8080   49.5220   13.4700 O.co2  47  ASP47      -0.2456
     32  OD2        6.5620   49.3520   12.1840 O.co2  47  ASP47      -0.2456
     33  N         14.2810   46.4740   17.3760 N.3    52  TYR52      -0.1241
     34  CA        15.1050   47.1350   16.3630 C.3    52  TYR52       0.1605
     35  C         16.3200   47.7560   17.0400 C.2    52  TYR52       0.2264
     36  O         16.2050   48.6370   17.9200 O.2    52  TYR52      -0.2867
     37  CB        14.3230   48.2000   15.5710 C.3    52  TYR52       0.0534
     38  CG        13.1630   47.6790   14.7690 C.ar   52  TYR52      -0.0201
     39  CD1       13.0400   46.3240   14.4320 C.ar   52  TYR52      -0.0009
     40  CD2       12.1440   48.5590   14.4030 C.ar   52  TYR52      -0.0009
     41  CE1       11.9310   45.8660   13.7060 C.ar   52  TYR52       0.0417
     42  CE2       11.0140   48.0970   13.6760 C.ar   52  TYR52       0.0417
     43  CZ        10.9470   46.7750   13.3250 C.ar   52  TYR52       0.1957
     44  OH         9.8150   46.3320   12.6580 O.3    52  TYR52      -0.2866
     45  N          6.0790   47.3190   19.0270 N.3    77  LYS77      -0.1245
     46  CA         5.8350   45.8900   18.9510 C.3    77  LYS77       0.1561
     47  C          6.5520   45.1890   20.0830 C.2    77  LYS77       0.2260
     48  O          7.5290   45.6940   20.6550 O.2    77  LYS77      -0.2867
     49  CB         6.3570   45.3360   17.6240 C.3    77  LYS77       0.0271
     50  CG         5.9340   46.1450   16.3600 C.3    77  LYS77       0.0035
     51  CD         6.2790   45.3530   15.0800 C.3    77  LYS77       0.0206
     52  CE         6.1020   46.2790   13.8770 C.3    77  LYS77       0.1093
     53  NZ         7.1680   47.3010   13.7510 N.3    77  LYS77      -0.1314
     54  N          4.5810   41.1210   17.6770 N.3   120  HIS120     -0.1241
     55  CA         5.5890   41.1630   16.6080 C.3   120  HIS120      0.1621
     56  C          5.7560   39.7790   15.9600 C.2   120  HIS120      0.2264
     57  O          6.8680   39.2080   15.9350 O.2   120  HIS120     -0.2867
     58  CB         6.9250   41.6200   17.2270 C.3   120  HIS120      0.0745
     59  CG         7.8900   42.1770   16.2340 C.ar  120  HIS120      0.0817
     60  ND1        9.0380   42.8420   16.6310 N.ar  120  HIS120     -0.2268
     61  CD2        7.8860   42.1720   14.8770 C.ar  120  HIS120      0.1154
     62  CE1        9.6990   43.2260   15.5470 C.ar  120  HIS120      0.1986
     63  NE2        9.0290   42.8260   14.4730 N.ar  120  HIS120     -0.2212
     64  N          1.3950   42.0410   13.9370 N.3   150  SER150     -0.1217
     65  CA         2.1640   42.1590   12.6980 C.3   150  SER150      0.1889
     66  C          2.4070   40.7120   12.2590 C.2   150  SER150      0.2288
     67  O          3.2080   40.0080   12.8570 O.2   150  SER150     -0.2866
     68  CB         3.4800   42.8750   12.9240 C.3   150  SER150      0.2089
     69  OG         4.1810   42.9340   11.6780 O.3   150  SER150     -0.2183
     70  N         -0.4530   44.4350   10.5970 N.3   170  MET170     -0.1245
     71  CA         0.6160   44.8930    9.7010 C.3   170  MET170      0.1570
     72  C          0.9960   43.7230    8.8050 C.2   170  MET170      0.2261
     73  O          1.2560   42.6000    9.3050 O.2   170  MET170     -0.2867
     74  CB         1.8130   45.4260   10.4870 C.3   170  MET170      0.0387
     75  CG         3.0170   45.6430    9.5590 C.3   170  MET170      0.0595
     76  SD         4.4030   46.4570   10.3730 S.3   170  MET170     -0.1393
     77  CE         4.1500   48.1700    9.8560 C.3   170  MET170      0.0692
     78  N          3.1580   42.6920    4.9100 N.3   172  GLN172     -0.1245
     79  CA         3.9140   43.1400    3.7340 C.3   172  GLN172      0.1566
     80  C          2.9670   43.1160    2.5570 C.2   172  GLN172      0.2260
     81  O          2.2890   42.1240    2.2750 O.2   172  GLN172     -0.2867
     82  CB         5.0700   42.2000    3.4670 C.3   172  GLN172      0.0367
     83  CG         5.7590   42.6080    2.1470 C.3   172  GLN172      0.0905
     84  CD         7.1000   41.9990    2.0200 C.2   172  GLN172      0.2608
     85  OE1        8.0850   42.5800    2.5070 O.2   172  GLN172     -0.2717
     86  NE2        7.1860   40.8540    1.3610 N.am  172  GLN172     -0.0878
     87  N          3.5850   47.1720    5.3560 N.3   197  ARG197     -0.1231
     88  CA         5.0380   47.2660    5.2950 C.3   197  ARG197      0.1694
     89  C          5.5120   46.7680    3.9290 C.2   197  ARG197      0.2593
     90  O          4.7410   46.1530    3.1560 O.2   197  ARG197     -0.2718
     91  CB         5.7100   46.4490    6.4080 C.3   197  ARG197      0.0321
     92  CG         5.4250   44.9320    6.3930 C.3   197  ARG197      0.0489
     93  CD         6.1200   44.2610    7.5510 C.3   197  ARG197      0.2205
     94  NE         5.8550   42.8400    7.6130 N.pl3 197  ARG197     -0.0865
     95  CZ         6.5780   41.8820    7.0480 C.cat 197  ARG197      0.5346
     96  NH1        7.6180   42.1480    6.2580 N.pl3 197  ARG197      0.1354
     97  NH2        6.2170   40.6110    7.2500 N.pl3 197  ARG197      0.1354
     98  N          6.7650   47.0480    3.6150 N.am  198  GLY198     -0.1943
     99  CA         7.3060   46.6720    2.3060 C.3   198  GLY198      0.1998
    100  C          6.6180   47.2520    1.0660 C.2   198  GLY198      0.2481
    101  O          6.6960   46.6310    0.0010 O.2   198  GLY198     -0.2729
    102  N          6.0140   48.4650    1.1360 N.am  199  PRO199     -0.2715
    103  CA         5.2180   48.9080   -0.0210 C.3   199  PRO199      0.1536
    104  C          6.0480   49.2150   -1.2620 C.2   199  PRO199      0.2598
    105  O          5.5050   49.1690   -2.3830 O.2   199  PRO199     -0.2715
    106  CB         4.5740   50.2260    0.4350 C.3   199  PRO199      0.0310
    107  CG         5.5420   50.7620    1.5170 C.3   199  PRO199      0.0237
    108  CD         5.9770   49.4800    2.2280 C.3   199  PRO199      0.0939
    109  N          7.3260   49.5480   -1.0980 N.am  200  VAL200     -0.1978
    110  CA         8.1990   49.7590   -2.2810 C.3   200  VAL200      0.1596
    111  C          9.1460   48.5700   -2.4440 C.2   200  VAL200      0.2287
    112  O         10.1310   48.6540   -3.2010 O.2   200  VAL200     -0.2864
    113  CB         8.8750   51.1630   -2.3390 C.3   200  VAL200      0.0276
    114  CG1        7.8130   52.2360   -2.4930 C.3   200  VAL200      0.0022
    115  CG2        9.7310   51.3960   -1.0880 C.3   200  VAL200      0.0022
    116  N         11.3510   47.5680   -0.5890 N.3   202  ARG202     -0.1231
    117  CA        12.6870   47.9920   -0.1510 C.3   202  ARG202      0.1694
    118  C         13.5180   48.5820   -1.2850 C.2   202  ARG202      0.2592
    119  O         14.7510   48.5840   -1.2190 O.2   202  ARG202     -0.2718
    120  CB        13.4170   46.8470    0.5820 C.3   202  ARG202      0.0321
    121  CG        12.6030   46.3680    1.7940 C.3   202  ARG202      0.0489
    122  CD        13.2550   45.2510    2.5240 C.3   202  ARG202      0.2205
    123  NE        12.4710   44.9910    3.7230 N.pl3 202  ARG202     -0.0865
    124  CZ        12.7400   44.0490    4.6190 C.cat 202  ARG202      0.5346
    125  NH1       13.7720   43.2190    4.4410 N.pl3 202  ARG202      0.1354
    126  NH2       11.9650   43.9330    5.6860 N.pl3 202  ARG202      0.1354
    127  N         12.8510   49.1740   -2.2700 N.am  203  GLY203     -0.1957
    128  CA        13.5430   49.8480   -3.3590 C.3   203  GLY203      0.1869
    129  C         13.3560   49.1940   -4.7090 C.2   203  GLY203      0.2309
    130  O         13.6810   49.8060   -5.7430 O.2   203  GLY203     -0.2863
    131  N         11.0900   51.4250   -7.4590 N.3   206  SER206     -0.1202
    132  CA        11.6000   52.8020   -7.4310 C.3   206  SER206      0.2020
    133  C         12.5560   52.9780   -8.6130 C.2   206  SER206      0.2619
    134  O         12.6610   52.0720   -9.4380 O.2   206  SER206     -0.2717
    135  CB        12.3640   53.1010   -6.1370 C.3   206  SER206      0.2103
    136  OG        13.6400   52.4570   -6.1150 O.3   206  SER206     -0.2182
    137  N         13.2810   54.1130   -8.6230 N.am  207  ARG207     -0.1965
    138  CA        14.3360   54.4030   -9.6280 C.3   207  ARG207      0.1729
    139  C         15.5140   53.4760   -9.5620 C.2   207  ARG207      0.2616
    140  O         16.2400   53.3030  -10.5680 O.2   207  ARG207     -0.2715
    141  CB        14.9490   55.7920   -9.4040 C.3   207  ARG207      0.0348
    142  CG        14.1480   56.9240   -9.8860 C.3   207  ARG207      0.0492
    143  CD        14.5020   57.2770  -11.3350 C.3   207  ARG207      0.2205
    144  NE        13.4570   58.1730  -11.7740 N.pl3 207  ARG207     -0.0865
    145  CZ        13.4840   59.4980  -11.6760 C.cat 207  ARG207      0.5346
    146  NH1       14.5600   60.1240  -11.2070 N.pl3 207  ARG207      0.1354
    147  NH2       12.4220   60.2000  -12.0720 N.pl3 207  ARG207      0.1354
    148  N         15.7740   52.9530   -8.3710 N.am  208  ARG208     -0.1977
    149  CA        16.9470   52.1410   -8.1300 C.3   208  ARG208      0.1597
    150  C         16.9740   50.9600   -9.0600 C.2   208  ARG208      0.2287
    151  O         15.9330   50.3400   -9.2990 O.2   208  ARG208     -0.2864
    152  CB        16.9920   51.6280   -6.7020 C.3   208  ARG208      0.0334
    153  CG        17.1830   52.6490   -5.6480 C.3   208  ARG208      0.0492
    154  CD        17.4370   51.8800   -4.3740 C.3   208  ARG208      0.2205
    155  NE        17.1040   52.6790   -3.2230 N.pl3 208  ARG208     -0.0865
    156  CZ        17.4060   52.3370   -1.9830 C.cat 208  ARG208      0.5346
    157  NH1       18.0720   51.2110   -1.7330 N.pl3 208  ARG208      0.1354
    158  NH2       17.0660   53.1420   -1.0070 N.pl3 208  ARG208      0.1354
    159  N          7.6380   54.5540   -7.8170 N.3   238  HIS238     -0.1241
    160  CA         7.3570   54.5270   -6.3600 C.3   238  HIS238      0.1621
    161  C          5.9460   55.0550   -6.0740 C.2   238  HIS238      0.2264
    162  O          5.3060   54.6220   -5.1140 O.2   238  HIS238     -0.2867
    163  CB         8.4010   55.3020   -5.5470 C.3   238  HIS238      0.0745
    164  CG         8.3440   56.7700   -5.7710 C.ar  238  HIS238      0.0817
    165  ND1        7.9790   57.6730   -4.7980 N.ar  238  HIS238     -0.2268
    166  CD2        8.5340   57.4850   -6.9030 C.ar  238  HIS238      0.1154
    167  CE1        8.0060   58.8950   -5.3140 C.ar  238  HIS238      0.1986
    168  NE2        8.3310   58.8030   -6.5850 N.ar  238  HIS238     -0.2212
    169  N          3.2230   52.2210    6.0080 N.3   255  ALA255     -0.1231
    170  CA         4.3670   52.5640    6.8560 C.3   255  ALA255      0.1694
    171  C          5.6650   52.3860    6.0690 C.2   255  ALA255      0.2592
    172  O          6.4940   51.5360    6.3970 O.2   255  ALA255     -0.2718
    173  CB         4.3630   51.7240    8.1460 C.3   255  ALA255      0.0304
    174  N          5.8350   53.1740    4.9950 N.am  256  ALA256     -0.1966
    175  CA         7.0600   53.0500    4.1790 C.3   256  ALA256      0.1728
    176  C          8.2720   53.4270    5.0170 C.2   256  ALA256      0.2616
    177  O          8.2100   54.3400    5.8600 O.2   256  ALA256     -0.2715
    178  CB         6.9390   53.9750    2.9700 C.3   256  ALA256      0.0334
    179  N          9.3660   52.7080    4.8220 N.am  257  GLY257     -0.1955
    180  CA        10.6080   53.0790    5.4930 C.3   257  GLY257      0.1869
    181  C         11.3590   54.1570    4.7140 C.2   257  GLY257      0.2309
    182  O         11.0310   54.4490    3.5640 O.2   257  GLY257     -0.2863
    183  N         15.7170   55.7750    4.6430 N.3   259  SER259     -0.1217
    184  CA        17.0340   56.0060    5.2590 C.3   259  SER259      0.1889
    185  C         17.5640   57.4340    4.9850 C.2   259  SER259      0.2288
    186  O         18.6890   57.7660    5.3940 O.2   259  SER259     -0.2866
    187  CB        18.0300   54.9780    4.7420 C.3   259  SER259      0.2089
    188  OG        18.1780   55.1460    3.3330 O.3   259  SER259     -0.2183
    189  N         14.1150   60.3930    0.4560 N.3   263  GLN263     -0.1245
    190  CA        13.1250   59.3110    0.3350 C.3   263  GLN263      0.1566
    191  C         11.8100   59.7030    0.9960 C.2   263  GLN263      0.2260
    192  O         10.7500   59.4810    0.4160 O.2   263  GLN263     -0.2867
    193  CB        13.6860   58.0450    0.9500 C.3   263  GLN263      0.0367
    194  CG        14.7910   57.4310    0.0680 C.3   263  GLN263      0.0905
    195  CD        15.4580   56.2490    0.7410 C.2   263  GLN263      0.2608
    196  OE1       15.0860   55.8810    1.8650 O.2   263  GLN263     -0.2717
    197  NE2       16.4810   55.6640    0.0780 N.am  263  GLN263     -0.0878
    198  N         10.0640   62.1680   -1.2210 N.3   266  ALA266     -0.1231
    199  CA         9.5270   61.5160   -2.4330 C.3   266  ALA266      0.1694
    200  C          8.2540   60.7290   -2.0940 C.2   266  ALA266      0.2592
    201  O          7.2950   60.7040   -2.8550 O.2   266  ALA266     -0.2718
    202  CB        10.5970   60.6060   -3.0410 C.3   266  ALA266      0.0304
    203  N          8.2400   60.0850   -0.9480 N.am  267  ASN267     -0.1974
    204  CA         7.0630   59.2480   -0.6140 C.3   267  ASN267      0.1688
    205  C          5.8590   60.0760   -0.2260 C.2   267  ASN267      0.2292
    206  O          4.7450   59.7270   -0.5880 O.2   267  ASN267     -0.2864
    207  CB         7.4580   58.2180    0.4250 C.3   267  ASN267      0.1181
    208  CG         8.4620   57.2130   -0.1380 C.2   267  ASN267      0.2629
    209  OD1        8.5920   57.0660   -1.3850 O.2   267  ASN267     -0.2716
    210  ND2        9.1530   56.5220    0.7280 N.am  267  ASN267     -0.0877
@<TRIPOS>BOND
     1   147   145    1
     2   144   145    2
     3   144   143    1
     4   145   146    1
     5   143   142    1
     6   140   139    2
     7   142   141    1
     8   138   139    1
     9   138   141    1
    10   138   137    1
    11   139   148   am
    12   134   133    2
    13   151   150    2
    14   150   149    1
    15   137   133   am
    16   133   132    1
    17   148   149    1
    18   149   152    1
    19   159   160    1
    20   131   132    1
    21   132   135    1
    22   166   168   ar
    23   166   164   ar
    24   152   153    1
    25   168   167   ar
    26   160   161    1
    27   160   163    1
    28   135   136    1
    29   161   162    2
    30   164   163    1
    31   164   165   ar
    32   130   129    2
    33   153   154    1
    34   167   165   ar
    35   129   128    1
    36   154   155    1
    37   128   127    1
    38   155   156    2
    39   112   111    2
    40   202   199    1
    41   201   200    2
    42   114   113    1
    43   111   110    1
    44   199   200    1
    45   199   198    1
    46   105   104    2
    47   113   110    1
    48   113   115    1
    49   110   109    1
    50   127   118   am
    51   200   203   am
    52   156   157    1
    53   156   158    1
    54   209   208    2
    55   118   119    2
    56   118   117    1
    57   104   109   am
    58   104   103    1
    59   203   204    1
    60   204   205    1
    61   204   207    1
    62   116   117    1
    63   206   205    2
    64   117   120    1
    65   208   207    1
    66   208   210   am
    67   103   106    1
    68   103   102    1
    69   101   100    2
    70   194   195    1
    71   194   193    1
    72   197   195   am
    73   190   189    1
    74   190   193    1
    75   190   191    1
    76   192   191    2
    77   106   107    1
    78   120   121    1
    79   195   196    2
    80   100   102   am
    81   100    99    1
    82   102   108    1
    83    86    84   am
    84   107   108    1
    85   121   122    1
    86    84    83    1
    87    84    85    2
    88    83    82    1
    89    81    80    2
    90    99    98    1
    91   122   123    1
    92    80    79    1
    93   178   175    1
    94    90    89    2
    95   188   187    1
    96    82    79    1
    97   182   181    2
    98    98    89   am
    99   123   124    2
   100    79    78    1
   101    89    88    1
   102   175   174    1
   103   175   176    1
   104   125   124    1
   105   124   126    1
   106   183   184    1
   107   181   180    1
   108   187   184    1
   109   179   176   am
   110   179   180    1
   111   185   184    1
   112   185   186    2
   113   174   171   am
   114   176   177    2
   115    88    87    1
   116    88    91    1
   117   169   170    1
   118   171   172    2
   119   171   170    1
   120    96    95    1
   121    92    91    1
   122    92    93    1
   123    24    23    1
   124   170   173    1
   125    23    20    1
   126    95    97    1
   127    95    94    2
   128    93    94    1
   129    22    21    2
   130    20    21    1
   131    20    19    1
   132    18    17    1
   133     1     2    1
   134    72    73    2
   135    72    71    1
   136     4     3    2
   137    19    13   am
   138     2     3    1
   139    75    76    1
   140    75    74    1
   141    71    74    1
   142    71    70    1
   143     3     5   am
   144    77    76    1
   145    17    16    1
   146    13    14    2
   147    13    12    1
   148    15    16    1
   149    15    12    1
   150    11    12    1
   151    11     7   am
   152     5     6    1
   153     7     6    1
   154     7     8    2
   155     6     9    1
   156    69    68    1
   157    32    30   ar
   158    66    65    1
   159    66    67    2
   160    29    30    1
   161    29    26    1
   162    44    43    1
   163    30    31   ar
   164    65    68    1
   165    65    64    1
   166     9    10    1
   167    28    27    2
   168    25    26    1
   169    43    42   ar
   170    43    41   ar
   171    26    27    1
   172    42    40   ar
   173    41    39   ar
   174    53    52    1
   175    52    51    1
   176    40    38   ar
   177    39    38   ar
   178    63    61   ar
   179    63    62   ar
   180    38    37    1
   181    61    59   ar
   182    51    50    1
   183    62    60   ar
   184    37    34    1
   185    57    56    2
   186    56    55    1
   187    59    60   ar
   188    59    58    1
   189    50    49    1
   190    34    35    1
   191    34    33    1
   192    55    58    1
   193    55    54    1
   194    35    36    2
   195    49    46    1
   196    46    45    1
   197    46    47    1
   198    47    48    2
