@<TRIPOS>MOLECULE
tmp/1ynsA00.pdb
 130 123 0 0 0
SMALL
GASTEIGER

@<TRIPOS>ATOM
      1  N         40.2160    1.2390   -6.6940 N.3    13  ASP13      -0.1225
      2  CA        40.4760    2.2020   -7.7570 C.3    13  ASP13       0.1805
      3  C         39.0660    2.4400   -8.3130 C.2    13  ASP13       0.2598
      4  O         38.1620    1.6610   -8.0100 O.2    13  ASP13      -0.2718
      5  CB        41.3680    1.5640   -8.8310 C.3    13  ASP13       0.1424
      6  CG        41.4290    2.3830  -10.1120 C.2    13  ASP13       0.3668
      7  OD1       41.6880    3.6050  -10.0250 O.co2  13  ASP13      -0.2456
      8  OD2       41.2250    1.8010  -11.2060 O.co2  13  ASP13      -0.2456
      9  N         38.8630    3.4930   -9.1010 N.am   14  ILE14      -0.1966
     10  CA        37.5340    3.7490   -9.6640 C.3    14  ILE14       0.1727
     11  C         37.4750    3.4170  -11.1740 C.2    14  ILE14       0.2616
     12  O         36.9300    2.3790  -11.5600 O.2    14  ILE14      -0.2715
     13  CB        37.0860    5.2210   -9.4310 C.3    14  ILE14       0.0290
     14  CG1       36.9680    5.5060   -7.9330 C.3    14  ILE14       0.0022
     15  CG2       35.7280    5.4730  -10.1080 C.3    14  ILE14       0.0023
     16  CD1       36.5900    6.9450   -7.6060 C.3    14  ILE14       0.0001
     17  N         38.0480    4.2710  -12.0250 N.am   15  GLU15      -0.1977
     18  CA        38.0070    4.0290  -13.4640 C.3    15  GLU15       0.1602
     19  C         38.6020    2.6810  -13.8890 C.2    15  GLU15       0.2287
     20  O         39.7330    2.3410  -13.5430 O.2    15  GLU15      -0.2864
     21  CB        38.7030    5.1690  -14.2240 C.3    15  GLU15       0.0415
     22  CG        38.8040    4.9280  -15.7310 C.3    15  GLU15       0.1163
     23  CD        39.2330    6.1680  -16.5060 C.2    15  GLU15       0.3649
     24  OE1       39.9860    6.9960  -15.9560 O.co2  15  GLU15      -0.2457
     25  OE2       38.8220    6.3100  -17.6750 O.co2  15  GLU15      -0.2457
     26  N         33.8630    7.5370  -17.6380 N.3    24  VAL24      -0.1245
     27  CA        34.8020    8.5850  -17.2830 C.3    24  VAL24       0.1561
     28  C         35.2800    9.3540  -18.5090 C.2    24  VAL24       0.2260
     29  O         35.1580   10.5710  -18.5710 O.2    24  VAL24      -0.2867
     30  CB        36.0410    8.0070  -16.5560 C.3    24  VAL24       0.0252
     31  CG1       36.9580    9.1400  -16.1000 C.3    24  VAL24       0.0019
     32  CG2       35.6020    7.1590  -15.3740 C.3    24  VAL24       0.0019
     33  N         31.7910   11.8050  -18.1840 N.3    28  LEU28      -0.1231
     34  CA        32.1940   12.7030  -17.1060 C.3    28  LEU28       0.1693
     35  C         33.0140   13.9150  -17.5440 C.2    28  LEU28       0.2592
     36  O         32.6720   15.0500  -17.2060 O.2    28  LEU28      -0.2718
     37  CB        32.9730   11.9340  -16.0350 C.3    28  LEU28       0.0284
     38  CG        33.3080   12.7300  -14.7690 C.3    28  LEU28       0.0019
     39  CD1       32.0350   12.9900  -13.9700 C.3    28  LEU28       0.0001
     40  CD2       34.3020   11.9420  -13.9250 C.3    28  LEU28       0.0001
     41  N         34.1010   13.6960  -18.2770 N.am   29  PHE29      -0.1976
     42  CA        34.9130   14.8380  -18.6860 C.3    29  PHE29       0.1639
     43  C         34.3570   15.6530  -19.8480 C.2    29  PHE29       0.2290
     44  O         34.3800   16.8830  -19.8000 O.2    29  PHE29      -0.2864
     45  CB        36.3610   14.4080  -18.9470 C.3    29  PHE29       0.0560
     46  CG        37.1270   14.1500  -17.6830 C.ar   29  PHE29      -0.0200
     47  CD1       37.1600   12.8790  -17.1180 C.ar   29  PHE29      -0.0042
     48  CD2       37.7330   15.2030  -16.9990 C.ar   29  PHE29      -0.0042
     49  CE1       37.7790   12.6610  -15.8870 C.ar   29  PHE29      -0.0003
     50  CE2       38.3530   14.9970  -15.7700 C.ar   29  PHE29      -0.0003
     51  CZ        38.3760   13.7250  -15.2110 C.ar   29  PHE29      -0.0000
     52  N         46.0570   18.7020  -15.3870 N.3   103  LYS103     -0.1245
     53  CA        45.1120   18.7130  -14.2790 C.3   103  LYS103      0.1561
     54  C         45.5860   19.5710  -13.1080 C.2   103  LYS103      0.2260
     55  O         46.0010   19.0620  -12.0780 O.2   103  LYS103     -0.2867
     56  CB        44.7840   17.2730  -13.8730 C.3   103  LYS103      0.0271
     57  CG        44.1870   16.4780  -15.0340 C.3   103  LYS103      0.0035
     58  CD        43.5160   15.1910  -14.5970 C.3   103  LYS103      0.0206
     59  CE        42.6730   14.6010  -15.7310 C.3   103  LYS103      0.1093
     60  NZ        42.2490   13.2100  -15.4400 N.3   103  LYS103     -0.1314
     61  N         30.4910   19.7210  -11.7420 N.3   115  TRP115     -0.1241
     62  CA        29.9380   18.3790  -11.5570 C.3   115  TRP115      0.1605
     63  C         28.9150   18.3640  -10.4230 C.2   115  TRP115      0.2264
     64  O         27.9460   17.6030  -10.4700 O.2   115  TRP115     -0.2867
     65  CB        31.0400   17.3410  -11.2790 C.3   115  TRP115      0.0550
     66  CG        31.8380   16.9630  -12.4870 C.ar  115  TRP115      0.0003
     67  CD1       31.3730   16.7910  -13.7700 C.ar  115  TRP115      0.0946
     68  CD2       33.2410   16.6710  -12.5290 C.ar  115  TRP115      0.0152
     69  NE1       32.4070   16.4090  -14.6030 N.ar  115  TRP115     -0.2442
     70  CE2       33.5600   16.3260  -13.8650 C.ar  115  TRP115      0.0810
     71  CE3       34.2600   16.6610  -11.5650 C.ar  115  TRP115      0.0012
     72  CZ2       34.8600   15.9810  -14.2610 C.ar  115  TRP115      0.0191
     73  CZ3       35.5540   16.3160  -11.9610 C.ar  115  TRP115      0.0001
     74  CH2       35.8380   15.9790  -13.2980 C.ar  115  TRP115      0.0015
     75  N         41.6840    7.3800   -6.0030 N.3   150  SER150     -0.1202
     76  CA        41.5530    7.8210   -7.3830 C.3   150  SER150      0.2020
     77  C         42.2310    9.1800   -7.5770 C.2   150  SER150      0.2619
     78  O         42.4110    9.9280   -6.6130 O.2   150  SER150     -0.2717
     79  CB        40.0640    7.9180   -7.7250 C.3   150  SER150      0.2103
     80  OG        39.8410    8.7780   -8.8230 O.3   150  SER150     -0.2182
     81  N         42.6070    9.4980   -8.8130 N.am  151  SER151     -0.1937
     82  CA        43.2510   10.7810   -9.0890 C.3   151  SER151      0.2055
     83  C         42.2080   11.8990   -9.0890 C.2   151  SER151      0.2643
     84  O         42.5500   13.0830   -9.0740 O.2   151  SER151     -0.2714
     85  CB        44.0030   10.7440  -10.4290 C.3   151  SER151      0.2130
     86  OG        43.1390   10.9580  -11.5270 O.3   151  SER151     -0.2179
     87  N         40.9330   11.5220   -9.1120 N.am  152  GLY152     -0.1954
     88  CA        39.8800   12.5210   -9.0590 C.3   152  GLY152      0.1869
     89  C         39.8260   13.0300   -7.6280 C.2   152  GLY152      0.2309
     90  O         40.0090   12.2550   -6.6910 O.2   152  GLY152     -0.2863
     91  N         35.0520   15.3470   -5.7510 N.3   156  ALA156     -0.1231
     92  CA        34.4170   14.8090   -6.9470 C.3   156  ALA156      0.1694
     93  C         34.0180   13.3520   -6.7050 C.2   156  ALA156      0.2591
     94  O         32.9440   12.9110   -7.1180 O.2   156  ALA156     -0.2718
     95  CB        35.3710   14.9030   -8.1240 C.3   156  ALA156      0.0304
     96  N         34.8880   12.6020   -6.0350 N.am  157  GLN157     -0.1979
     97  CA        34.6030   11.2010   -5.7360 C.3   157  GLN157      0.1601
     98  C         33.2940   11.0660   -4.9750 C.2   157  GLN157      0.2287
     99  O         32.4760   10.1930   -5.2680 O.2   157  GLN157     -0.2864
    100  CB        35.7190   10.5880   -4.8830 C.3   157  GLN157      0.0394
    101  CG        37.0420   10.4000   -5.5950 C.3   157  GLN157      0.0908
    102  CD        38.0890    9.7860   -4.6880 C.2   157  GLN157      0.2608
    103  OE1       37.7940    8.8720   -3.9150 O.2   157  GLN157     -0.2717
    104  NE2       39.3220   10.2780   -4.7820 N.am  157  GLN157     -0.0878
    105  N         30.3230   11.1780   -7.1430 N.3   160  LEU160     -0.1245
    106  CA        30.1060    9.9380   -7.8740 C.3   160  LEU160      0.1561
    107  C         29.3640    8.9170   -7.0140 C.2   160  LEU160      0.2260
    108  O         28.3590    8.3520   -7.4390 O.2   160  LEU160     -0.2867
    109  CB        31.4390    9.3290   -8.3310 C.3   160  LEU160      0.0270
    110  CG        32.2980   10.0940   -9.3400 C.3   160  LEU160      0.0019
    111  CD1       33.3290    9.1430   -9.9480 C.3   160  LEU160      0.0001
    112  CD2       31.4210   10.6720  -10.4270 C.3   160  LEU160      0.0001
    113  N         49.4600    7.8110   -7.8360 N.3   184  LYS184     -0.1245
    114  CA        49.1430    6.3860   -7.8470 C.3   184  LYS184      0.1561
    115  C         50.2300    5.4050   -8.2760 C.2   184  LYS184      0.2260
    116  O         50.1360    4.2200   -7.9600 O.2   184  LYS184     -0.2867
    117  CB        47.8780    6.1590   -8.6770 C.3   184  LYS184      0.0271
    118  CG        46.7020    6.9870   -8.1680 C.3   184  LYS184      0.0035
    119  CD        45.4050    6.6380   -8.8700 C.3   184  LYS184      0.0206
    120  CE        44.8940    5.2920   -8.4220 C.3   184  LYS184      0.1093
    121  NZ        43.7250    4.8900   -9.2410 N.3   184  LYS184     -0.1314
    122  N         49.9730    0.6820  -11.3790 N.3   213  GLU213     -0.1245
    123  CA        49.4940    0.9940  -10.0430 C.3   213  GLU213      0.1567
    124  C         49.6870   -0.2410   -9.1780 C.2   213  GLU213      0.2260
    125  O         50.1370   -0.1550   -8.0380 O.2   213  GLU213     -0.2867
    126  CB        48.0150    1.3880  -10.0850 C.3   213  GLU213      0.0388
    127  CG        47.7980    2.8100  -10.5670 C.3   213  GLU213      0.1160
    128  CD        46.3340    3.1880  -10.6980 C.2   213  GLU213      0.3649
    129  OE1       45.4890    2.5830  -10.0050 O.co2 213  GLU213     -0.2457
    130  OE2       46.0310    4.1100  -11.4860 O.co2 213  GLU213     -0.2457
@<TRIPOS>BOND
     1    43    44    2
     2    43    42    1
     3    45    42    1
     4    45    46    1
     5    42    41    1
     6    29    28    2
     7    28    27    1
     8    41    35   am
     9    33    34    1
    10    46    47   ar
    11    46    48   ar
    12    25    23   ar
    13    26    27    1
    14    35    36    2
    15    35    34    1
    16    27    30    1
    17    47    49   ar
    18    34    37    1
    19    48    50   ar
    20    30    31    1
    21    30    32    1
    22    23    24   ar
    23    23    22    1
    24    37    38    1
    25    49    51   ar
    26    50    51   ar
    27    22    21    1
    28    59    60    1
    29    59    58    1
    30    52    53    1
    31    57    58    1
    32    57    56    1
    33    38    39    1
    34    38    40    1
    35    69    70   ar
    36    69    67   ar
    37    53    56    1
    38    53    54    1
    39    72    70   ar
    40    72    74   ar
    41    21    18    1
    42    19    20    2
    43    19    18    1
    44    70    68   ar
    45    67    66   ar
    46    18    17    1
    47    74    73   ar
    48    54    55    2
    49    68    66   ar
    50    68    71   ar
    51    66    65    1
    52    17    11   am
    53    73    71   ar
    54    61    62    1
    55    12    11    2
    56    62    65    1
    57    62    63    1
    58    86    85    1
    59   130   128   ar
    60   122   123    1
    61     8     6   ar
    62    11    10    1
    63   128   127    1
    64   128   129   ar
    65   127   126    1
    66    64    63    2
    67    85    82    1
    68   112   110    1
    69     6     7   ar
    70     6     5    1
    71    15    13    1
    72   126   123    1
    73   123   124    1
    74   111   110    1
    75    10    13    1
    76    10     9    1
    77    13    14    1
    78   110   109    1
    79   121   120    1
    80   124   125    2
    81    87    83   am
    82    87    88    1
    83     9     3   am
    84    83    82    1
    85    83    84    2
    86    82    81    1
    87    88    89    1
    88   119   120    1
    89   119   118    1
    90     5     2    1
    91    80    79    1
    92    81    77   am
    93   117   118    1
    94   117   114    1
    95   109   106    1
    96     3     4    2
    97     3     2    1
    98   115   116    2
    99   115   114    1
   100    95    92    1
   101    14    16    1
   102   106   105    1
   103   106   107    1
   104   114   113    1
   105     2     1    1
   106    79    76    1
   107    89    90    2
   108    77    76    1
   109    77    78    2
   110   108   107    2
   111    76    75    1
   112    94    93    2
   113    92    93    1
   114    92    91    1
   115    93    96   am
   116    96    97    1
   117    97    98    1
   118    97   100    1
   119   101   100    1
   120   101   102    1
   121    99    98    2
   122   104   102   am
   123   102   103    2
