@<TRIPOS>MOLECULE
tmp/1ynuA00.pdb
 182 171 0 0 0
SMALL
GASTEIGER

@<TRIPOS>ATOM
      1  N          8.3920    6.6380   23.0390 N.3     9  TYR9       -0.1241
      2  CA         9.1680    5.4070   22.9130 C.3     9  TYR9        0.1605
      3  C          9.3600    4.7900   24.2940 C.2     9  TYR9        0.2264
      4  O          9.3410    3.5660   24.4440 O.2     9  TYR9       -0.2867
      5  CB        10.5270    5.7010   22.2590 C.3     9  TYR9        0.0534
      6  CG        11.5450    4.5730   22.3370 C.ar    9  TYR9       -0.0201
      7  CD1       12.3620    4.4210   23.4590 C.ar    9  TYR9       -0.0009
      8  CD2       11.7020    3.6660   21.2840 C.ar    9  TYR9       -0.0009
      9  CE1       13.3100    3.4020   23.5330 C.ar    9  TYR9        0.0417
     10  CE2       12.6510    2.6410   21.3510 C.ar    9  TYR9        0.0417
     11  CZ        13.4500    2.5190   22.4800 C.ar    9  TYR9        0.1957
     12  OH        14.3960    1.5250   22.5560 O.3     9  TYR9       -0.2866
     13  N         10.7710   -2.6840   20.6930 N.3    35  LEU35      -0.1231
     14  CA        12.1610   -2.9160   21.0790 C.3    35  LEU35       0.1693
     15  C         12.8960   -3.7170   20.0170 C.2    35  LEU35       0.2592
     16  O         12.5440   -4.8650   19.7390 O.2    35  LEU35      -0.2718
     17  CB        12.2450   -3.6590   22.4080 C.3    35  LEU35       0.0284
     18  CG        12.5650   -2.7700   23.6100 C.3    35  LEU35       0.0019
     19  CD1       13.9120   -2.0740   23.3900 C.3    35  LEU35       0.0001
     20  CD2       11.4370   -1.7460   23.8110 C.3    35  LEU35       0.0001
     21  N         13.9260   -3.1140   19.4410 N.am   36  ALA36      -0.1966
     22  CA        14.6990   -3.7600   18.3900 C.3    36  ALA36       0.1728
     23  C         15.6050   -4.8870   18.9040 C.2    36  ALA36       0.2616
     24  O         16.8160   -4.7310   18.9850 O.2    36  ALA36      -0.2715
     25  CB        15.5240   -2.7160   17.6480 C.3    36  ALA36       0.0334
     26  N         15.0100   -6.0200   19.2520 N.am   37  GLU37      -0.1977
     27  CA        15.7840   -7.1630   19.7290 C.3    37  GLU37       0.1602
     28  C         15.6890   -8.3140   18.7300 C.2    37  GLU37       0.2287
     29  O         14.7070   -8.4360   17.9960 O.2    37  GLU37      -0.2864
     30  CB        15.2810   -7.6190   21.1010 C.3    37  GLU37       0.0415
     31  CG        15.3120   -6.5130   22.1480 C.3    37  GLU37       0.1163
     32  CD        16.7260   -6.1010   22.5520 C.2    37  GLU37       0.3649
     33  OE1       17.6500   -6.1370   21.7080 O.co2  37  GLU37      -0.2457
     34  OE2       16.9070   -5.7250   23.7280 O.co2  37  GLU37      -0.2457
     35  N         28.1510   -2.0940   26.5150 N.3   109  GLY109     -0.1210
     36  CA        27.0980   -1.7880   25.5650 C.3   109  GLY109      0.1956
     37  C         27.4450   -0.5550   24.7350 C.2   109  GLY109      0.2612
     38  O         28.3910    0.1810   25.0590 O.2   109  GLY109     -0.2717
     39  N         26.6830   -0.3290   23.6650 N.am  110  ALA110     -0.1965
     40  CA        26.8920    0.8170   22.7790 C.3   110  ALA110      0.1728
     41  C         26.3230    2.1010   23.4030 C.2   110  ALA110      0.2616
     42  O         26.6840    3.2150   23.0060 O.2   110  ALA110     -0.2715
     43  CB        26.2430    0.5500   21.4080 C.3   110  ALA110      0.0334
     44  N         25.4190    1.9380   24.3650 N.am  111  THR111     -0.1951
     45  CA        24.8530    3.0820   25.0800 C.3   111  THR111      0.1897
     46  C         26.0470    3.7740   25.7690 C.2   111  THR111      0.2313
     47  O         26.2260    4.9920   25.6920 O.2   111  THR111     -0.2863
     48  CB        23.8670    2.6200   26.1630 C.3   111  THR111      0.1794
     49  OG1       22.8110    1.8600   25.5590 O.3   111  THR111     -0.2208
     50  CG2       23.2650    3.8210   26.8900 C.3   111  THR111      0.0378
     51  N         28.6160    5.2980   23.1040 N.3   114  ASN114     -0.1240
     52  CA        28.2450    6.5550   22.4410 C.3   114  ASN114      0.1653
     53  C         28.4160    7.7410   23.3810 C.2   114  ASN114      0.2266
     54  O         28.9100    8.7870   22.9790 O.2   114  ASN114     -0.2867
     55  CB        26.8090    6.5060   21.9160 C.3   114  ASN114      0.1155
     56  CG        26.7120    5.7930   20.5850 C.2   114  ASN114      0.2627
     57  OD1       27.4540    6.1120   19.6500 O.2   114  ASN114     -0.2716
     58  ND2       25.8070    4.8290   20.4840 N.am  114  ASN114     -0.0877
     59  N         17.5180    7.0520   16.4900 N.3   135  TYR135     -0.1241
     60  CA        17.1530    6.2960   17.6890 C.3   135  TYR135      0.1605
     61  C         16.7760    7.2320   18.8550 C.2   135  TYR135      0.2264
     62  O         17.5710    8.0660   19.2820 O.2   135  TYR135     -0.2867
     63  CB        18.3280    5.3900   18.0620 C.3   135  TYR135      0.0534
     64  CG        18.2820    4.7870   19.4430 C.ar  135  TYR135     -0.0201
     65  CD1       17.1650    4.0780   19.8900 C.ar  135  TYR135     -0.0009
     66  CD2       19.3890    4.8810   20.2840 C.ar  135  TYR135     -0.0009
     67  CE1       17.1570    3.4680   21.1580 C.ar  135  TYR135      0.0417
     68  CE2       19.4000    4.2810   21.5310 C.ar  135  TYR135      0.0417
     69  CZ        18.2900    3.5750   21.9700 C.ar  135  TYR135      0.1957
     70  OH        18.3380    2.9690   23.2090 O.3   135  TYR135     -0.2866
     71  N         18.9750    8.3400   21.8090 N.3   138  PHE138     -0.1241
     72  CA        20.0590    9.2980   21.6600 C.3   138  PHE138      0.1605
     73  C         19.8780   10.5430   22.5190 C.2   138  PHE138      0.2264
     74  O         20.8490   11.1030   23.0280 O.2   138  PHE138     -0.2867
     75  CB        20.2180    9.7240   20.2020 C.3   138  PHE138      0.0534
     76  CG        21.0400    8.7820   19.3800 C.ar  138  PHE138     -0.0203
     77  CD1       22.0030    7.9790   19.9720 C.ar  138  PHE138     -0.0042
     78  CD2       20.8790    8.7230   17.9990 C.ar  138  PHE138     -0.0042
     79  CE1       22.7920    7.1330   19.2080 C.ar  138  PHE138     -0.0003
     80  CE2       21.6660    7.8780   17.2220 C.ar  138  PHE138     -0.0003
     81  CZ        22.6210    7.0830   17.8230 C.ar  138  PHE138     -0.0000
     82  N         21.1700    9.2090   25.9930 N.3   141  ASP141     -0.1239
     83  CA        22.5650    8.7800   25.9230 C.3   141  ASP141      0.1674
     84  C         23.5820    9.8750   25.6830 C.2   141  ASP141      0.2266
     85  O         24.5580   10.0090   26.4230 O.2   141  ASP141     -0.2867
     86  CB        22.7750    7.7320   24.8170 C.3   141  ASP141      0.1410
     87  CG        21.6940    6.6640   24.7870 C.2   141  ASP141      0.3668
     88  OD1       21.2240    6.2370   25.8660 O.co2 141  ASP141     -0.2456
     89  OD2       21.3290    6.2470   23.6630 O.co2 141  ASP141     -0.2456
     90  N         23.9930    6.5540   11.8460 N.3   188  THR188     -0.1218
     91  CA        23.7200    5.1550   12.1060 C.3   188  THR188      0.1862
     92  C         23.6780    4.4140   10.7650 C.2   188  THR188      0.2287
     93  O         22.8500    4.6990    9.8940 O.2   188  THR188     -0.2866
     94  CB        22.4100    4.9830   12.8910 C.3   188  THR188      0.1770
     95  OG1       22.5310    5.6630   14.1460 O.3   188  THR188     -0.2211
     96  CG2       22.1510    3.5280   13.1890 C.3   188  THR188      0.0375
     97  N         18.7830    3.1480   12.0060 N.3   192  ASN192     -0.1240
     98  CA        17.7260    2.8170   12.9380 C.3   192  ASN192      0.1653
     99  C         17.1000    4.2030   12.9920 C.2   192  ASN192      0.2266
    100  O         17.7940    5.1780   13.2620 O.2   192  ASN192     -0.2867
    101  CB        18.3240    2.3960   14.2870 C.3   192  ASN192      0.1155
    102  CG        17.2900    2.2880   15.3830 C.2   192  ASN192      0.2627
    103  OD1       16.0980    2.1490   15.1250 O.2   192  ASN192     -0.2716
    104  ND2       17.7480    2.3450   16.6250 N.am  192  ASN192     -0.0877
    105  N         27.6980    4.7110   13.9230 N.3   220  ASP220     -0.1239
    106  CA        27.1410    3.7090   14.8150 C.3   220  ASP220      0.1674
    107  C         26.7220    2.5230   13.9310 C.2   220  ASP220      0.2266
    108  O         25.6430    2.5260   13.3420 O.2   220  ASP220     -0.2867
    109  CB        25.9250    4.2770   15.5430 C.3   220  ASP220      0.1410
    110  CG        25.4290    3.3650   16.6350 C.2   220  ASP220      0.3668
    111  OD1       25.2200    2.1630   16.3690 O.co2 220  ASP220     -0.2456
    112  OD2       25.2380    3.8390   17.7740 O.co2 220  ASP220     -0.2456
    113  N         26.0980   -0.6620   14.8760 N.3   222  ILE222     -0.1231
    114  CA        25.5760   -1.7560   15.6920 C.3   222  ILE222      0.1692
    115  C         24.7020   -2.7540   14.9130 C.2   222  ILE222      0.2592
    116  O         24.5580   -3.9110   15.3190 O.2   222  ILE222     -0.2718
    117  CB        24.7670   -1.2130   16.9130 C.3   222  ILE222      0.0266
    118  CG1       24.5270   -2.3280   17.9270 C.3   222  ILE222      0.0019
    119  CG2       23.4300   -0.6550   16.4740 C.3   222  ILE222      0.0020
    120  CD1       23.6720   -1.9010   19.1290 C.3   222  ILE222      0.0001
    121  N         24.1260   -2.3130   13.7930 N.am  223  TYR223     -0.1976
    122  CA        23.2720   -3.1930   13.0050 C.3   223  TYR223      0.1639
    123  C         23.9700   -3.7510   11.7660 C.2   223  TYR223      0.2290
    124  O         23.3260   -4.3150   10.8930 O.2   223  TYR223     -0.2864
    125  CB        22.0140   -2.4410   12.5890 C.3   223  TYR223      0.0560
    126  CG        21.0920   -2.1040   13.7310 C.ar  223  TYR223     -0.0198
    127  CD1       20.2560   -3.0750   14.2840 C.ar  223  TYR223     -0.0009
    128  CD2       21.0830   -0.8110   14.2900 C.ar  223  TYR223     -0.0009
    129  CE1       19.4380   -2.7830   15.3620 C.ar  223  TYR223      0.0417
    130  CE2       20.2610   -0.5030   15.3740 C.ar  223  TYR223      0.0417
    131  CZ        19.4420   -1.4960   15.9040 C.ar  223  TYR223      0.1957
    132  OH        18.6100   -1.2030   16.9540 O.3   223  TYR223     -0.2866
    133  N         28.6550   -3.1210   18.7740 N.3   254  SER254     -0.1217
    134  CA        28.0120   -3.7820   19.9020 C.3   254  SER254      0.1889
    135  C         27.6330   -5.2040   19.4790 C.2   254  SER254      0.2288
    136  O         27.5460   -5.4760   18.2960 O.2   254  SER254     -0.2866
    137  CB        26.7650   -2.9880   20.2850 C.3   254  SER254      0.2089
    138  OG        25.8840   -3.7290   21.0930 O.3   254  SER254     -0.2183
    139  N         24.9940   -6.5200   20.9230 N.3   256  SER256     -0.1202
    140  CA        23.6050   -6.5280   21.3480 C.3   256  SER256      0.2020
    141  C         22.6000   -6.8890   20.2630 C.2   256  SER256      0.2618
    142  O         21.6310   -7.5990   20.5330 O.2   256  SER256     -0.2717
    143  CB        23.2230   -5.1600   21.9160 C.3   256  SER256      0.2103
    144  OG        23.7660   -4.9730   23.2060 O.3   256  SER256     -0.2182
    145  N         22.8270   -6.4210   19.0380 N.am  257  LYS257     -0.1979
    146  CA        21.8480   -6.6530   17.9710 C.3   257  LYS257      0.1596
    147  C         22.0660   -7.8010   16.9810 C.2   257  LYS257      0.2287
    148  O         21.1090   -8.4800   16.6130 O.2   257  LYS257     -0.2864
    149  CB        21.6120   -5.3380   17.2090 C.3   257  LYS257      0.0298
    150  CG        21.0650   -4.2010   18.0840 C.3   257  LYS257      0.0038
    151  CD        19.6240   -4.4720   18.4760 C.3   257  LYS257      0.0206
    152  CE        19.3900   -4.3600   19.9810 C.3   257  LYS257      0.1093
    153  NZ        19.1230   -2.9630   20.3810 N.3   257  LYS257     -0.1314
    154  N         21.9170   -8.3610   24.1890 N.3   262  PRO262     -0.2116
    155  CA        21.9420   -7.0550   24.8620 C.3   262  PRO262      0.1372
    156  C         22.1790   -7.1690   26.3780 C.2   262  PRO262      0.2244
    157  O         22.7390   -6.2670   27.0010 O.2   262  PRO262     -0.2868
    158  CB        20.5700   -6.4750   24.5350 C.3   262  PRO262      0.0268
    159  CG        19.7040   -7.7090   24.4430 C.3   262  PRO262      0.0207
    160  CD        20.5730   -8.6560   23.6560 C.3   262  PRO262      0.0892
    161  N         25.8540   -6.8240   27.6890 N.3   265  ARG265     -0.1245
    162  CA        26.4820   -5.4960   27.6400 C.3   265  ARG265      0.1563
    163  C         27.8690   -5.4050   27.0110 C.2   265  ARG265      0.2260
    164  O         28.8150   -4.9150   27.6410 O.2   265  ARG265     -0.2867
    165  CB        26.5700   -4.9330   29.0530 C.3   265  ARG265      0.0307
    166  CG        25.3370   -5.1740   29.8900 C.3   265  ARG265      0.0489
    167  CD        24.1270   -4.6240   29.1810 C.3   265  ARG265      0.2205
    168  NE        24.3390   -3.2490   28.7520 N.pl3 265  ARG265     -0.0865
    169  CZ        23.9390   -2.7670   27.5750 C.cat 265  ARG265      0.5346
    170  NH1       23.3180   -3.5550   26.6980 N.pl3 265  ARG265      0.1354
    171  NH2       24.1230   -1.4840   27.2870 N.pl3 265  ARG265      0.1354
    172  N          8.0400    2.9840   13.6430 N.3   391  ARG391     -0.1245
    173  CA         9.0310    1.9200   13.5640 C.3   391  ARG391      0.1563
    174  C          8.3660    0.7030   14.1790 C.2   391  ARG391      0.2260
    175  O          7.7970    0.7800   15.2730 O.2   391  ARG391     -0.2867
    176  CB        10.2980    2.2550   14.3450 C.3   391  ARG391      0.0307
    177  CG        11.4280    1.2760   14.0410 C.3   391  ARG391      0.0489
    178  CD        12.5770    1.3580   15.0210 C.3   391  ARG391      0.2205
    179  NE        12.2340    0.8350   16.3410 N.pl3 391  ARG391     -0.0865
    180  CZ        13.1200    0.6300   17.3180 C.cat 391  ARG391      0.5346
    181  NH1       14.4050    0.9020   17.1280 N.pl3 391  ARG391      0.1354
    182  NH2       12.7280    0.1460   18.4830 N.pl3 391  ARG391      0.1354
@<TRIPOS>BOND
     1    93    92    2
     2    92    91    1
     3   124   123    2
     4   123   122    1
     5    90    91    1
     6    97    98    1
     7    91    94    1
     8   125   122    1
     9   125   126    1
    10    94    96    1
    11    94    95    1
    12    98    99    1
    13    98   101    1
    14    99   100    2
    15   122   121    1
    16   108   107    2
    17   173   172    1
    18   173   174    1
    19   173   176    1
    20   126   127   ar
    21   126   128   ar
    22   121   115   am
    23   105   106    1
    24   107   106    1
    25   177   176    1
    26   177   178    1
    27   174   175    2
    28   127   129   ar
    29   101   102    1
    30   128   130   ar
    31   106   109    1
    32   113   114    1
    33   115   116    2
    34   115   114    1
    35   178   179    1
    36   103   102    2
    37   129   131   ar
    38   130   131   ar
    39   102   104   am
    40   109   110    1
    41   114   117    1
    42   131   132    1
    43   179   180    2
    44   111   110   ar
    45   119   117    1
    46    59    60    1
    47   148   147    2
    48   110   112   ar
    49   117   118    1
    50   147   146    1
    51   181   180    1
    52   149   146    1
    53   149   150    1
    54    80    81   ar
    55    80    78   ar
    56   180   182    1
    57    25    22    1
    58    60    63    1
    59    60    61    1
    60    81    79   ar
    61   118   120    1
    62   146   145    1
    63    29    28    2
    64    78    76   ar
    65    63    64    1
    66   150   151    1
    67   136   135    2
    68    22    23    1
    69    22    21    1
    70   151   152    1
    71    28    27    1
    72   133   134    1
    73    61    62    2
    74    23    24    2
    75    23    26   am
    76   145   141   am
    77    79    77   ar
    78    26    27    1
    79    76    77   ar
    80    76    75    1
    81    21    15   am
    82    64    65   ar
    83    64    66   ar
    84   135   134    1
    85    57    56    2
    86    27    30    1
    87    16    15    2
    88    65    67   ar
    89   134   137    1
    90   152   153    1
    91    15    14    1
    92    75    72    1
    93   141   142    2
    94   141   140    1
    95    66    68   ar
    96   137   138    1
    97    58    56   am
    98    56    55    1
    99    13    14    1
   100   139   140    1
   101    14    17    1
   102    30    31    1
   103    67    69   ar
   104     8    10   ar
   105     8     6   ar
   106   140   143    1
   107    10    11   ar
   108    43    40    1
   109    68    69   ar
   110    72    71    1
   111    72    73    1
   112    33    32   ar
   113   143   144    1
   114    55    52    1
   115    69    70    1
   116    31    32    1
   117     5     6    1
   118     5     2    1
   119     6     7   ar
   120    17    18    1
   121    52    51    1
   122    52    53    1
   123    11    12    1
   124    11     9   ar
   125    73    74    2
   126    32    34   ar
   127    40    41    1
   128    40    39    1
   129     2     1    1
   130     2     3    1
   131    54    53    2
   132    42    41    2
   133    19    18    1
   134    41    44   am
   135     7     9   ar
   136    18    20    1
   137   160   154    1
   138   160   159    1
   139    89    87   ar
   140    39    37   am
   141   154   155    1
   142     3     4    2
   143    44    45    1
   144   159   158    1
   145   158   155    1
   146    37    38    2
   147    37    36    1
   148    87    86    1
   149    87    88   ar
   150    86    83    1
   151   155   156    1
   152    45    46    1
   153    45    48    1
   154    49    48    1
   155    36    35    1
   156    84    83    1
   157    84    85    2
   158    47    46    2
   159    83    82    1
   160    48    50    1
   161   156   157    2
   162   170   169    1
   163   163   162    1
   164   163   164    2
   165   171   169    1
   166   169   168    2
   167   162   161    1
   168   162   165    1
   169   168   167    1
   170   165   166    1
   171   167   166    1
