@<TRIPOS>MOLECULE
tmp/1yoaA01.pdb
 95 92 0 0 0
SMALL
GASTEIGER

@<TRIPOS>ATOM
      1  N         38.9390   65.7570   25.7840 N.3     6  LYS6       -0.1231
      2  CA        38.3230   64.4400   25.5570 C.3     6  LYS6        0.1693
      3  C         37.0800   64.5450   24.6580 C.2     6  LYS6        0.2591
      4  O         36.8990   63.7430   23.7180 O.2     6  LYS6       -0.2718
      5  CB        37.9580   63.7910   26.8750 C.3     6  LYS6        0.0285
      6  CG        37.2610   62.4520   26.7810 C.3     6  LYS6        0.0035
      7  CD        35.7400   62.5850   26.8660 C.3     6  LYS6        0.0206
      8  CE        35.2740   62.8550   28.2780 C.3     6  LYS6        0.1093
      9  NZ        33.7940   62.8140   28.3320 N.3     6  LYS6       -0.1314
     10  N         36.2360   65.5420   24.9400 N.am    7  LYS7       -0.1980
     11  CA        35.0360   65.7570   24.1290 C.3     7  LYS7        0.1596
     12  C         35.3750   66.0720   22.7000 C.2     7  LYS7        0.2287
     13  O         34.7600   65.5060   21.7860 O.2     7  LYS7       -0.2864
     14  CB        34.1490   66.8880   24.6890 C.3     7  LYS7        0.0298
     15  CG        33.6270   66.6240   26.0690 C.3     7  LYS7        0.0038
     16  CD        32.6910   67.7680   26.6190 C.3     7  LYS7        0.0206
     17  CE        33.1640   68.2920   28.0070 C.3     7  LYS7        0.1093
     18  NZ        32.9250   69.7720   28.1940 N.3     7  LYS7       -0.1314
     19  N         34.7540   63.7150   19.3570 N.3    11  ARG11      -0.1245
     20  CA        33.9940   64.3320   18.2750 C.3    11  ARG11       0.1563
     21  C         34.7790   64.4900   16.9740 C.2    11  ARG11       0.2260
     22  O         34.2130   64.8640   15.9730 O.2    11  ARG11      -0.2867
     23  CB        33.4140   65.6790   18.7280 C.3    11  ARG11       0.0307
     24  CG        32.3690   65.4720   19.7600 C.3    11  ARG11       0.0489
     25  CD        31.5640   66.6940   20.1030 C.3    11  ARG11       0.2205
     26  NE        30.4930   66.2950   21.0060 N.pl3  11  ARG11      -0.0865
     27  CZ        29.4730   67.0710   21.3710 C.cat  11  ARG11       0.5346
     28  NH1       28.5560   66.5910   22.2130 N.pl3  11  ARG11       0.1354
     29  NH2       29.3740   68.3180   20.9280 N.pl3  11  ARG11       0.1354
     30  N         22.6050   52.0430   22.7980 N.3    51  LYS51      -0.1245
     31  CA        22.1720   52.6510   24.0660 C.3    51  LYS51       0.1561
     32  C         21.3990   51.6450   24.8990 C.2    51  LYS51       0.2260
     33  O         20.4330   51.0490   24.4350 O.2    51  LYS51      -0.2867
     34  CB        21.3250   53.9210   23.8160 C.3    51  LYS51       0.0271
     35  CG        20.8560   54.6230   25.0820 C.3    51  LYS51       0.0035
     36  CD        20.1700   55.9860   24.8170 C.3    51  LYS51       0.0206
     37  CE        19.6940   56.6470   26.1510 C.3    51  LYS51       0.1093
     38  NZ        20.7030   56.6090   27.2840 N.3    51  LYS51      -0.1314
     39  N         19.4670   51.9740   27.3820 N.3    53  ASP53      -0.1239
     40  CA        18.1190   52.4640   27.7030 C.3    53  ASP53       0.1674
     41  C         17.3940   52.7690   26.3970 C.2    53  ASP53       0.2266
     42  O         17.0710   53.9400   26.0940 O.2    53  ASP53      -0.2867
     43  CB        18.2190   53.7320   28.5670 C.3    53  ASP53       0.1410
     44  CG        18.5620   53.4190   30.0150 C.2    53  ASP53       0.3668
     45  OD1       18.3920   54.3180   30.8890 O.co2  53  ASP53      -0.2456
     46  OD2       19.0000   52.3020   30.3840 O.co2  53  ASP53      -0.2456
     47  N         26.7860   53.2760   29.3890 N.3   128  ASP128     -0.1225
     48  CA        25.4530   53.6830   28.9470 C.3   128  ASP128      0.1805
     49  C         25.0810   53.0690   27.5830 C.2   128  ASP128      0.2597
     50  O         23.9220   53.0760   27.2160 O.2   128  ASP128     -0.2718
     51  CB        25.2610   55.2030   28.9720 C.3   128  ASP128      0.1424
     52  CG        26.3250   55.9650   28.2180 C.2   128  ASP128      0.3668
     53  OD1       26.6400   57.1020   28.6400 O.co2 128  ASP128     -0.2456
     54  OD2       26.8920   55.5490   27.1750 O.co2 128  ASP128     -0.2456
     55  N         26.0710   52.5420   26.8560 N.am  129  HIS129     -0.1975
     56  CA        25.8450   51.7470   25.6410 C.3   129  HIS129      0.1656
     57  C         26.4890   50.3880   25.8410 C.2   129  HIS129      0.2291
     58  O         27.5330   50.2820   26.5290 O.2   129  HIS129     -0.2864
     59  CB        26.4870   52.4210   24.4160 C.3   129  HIS129      0.0771
     60  CG        25.7940   53.6630   23.9590 C.ar  129  HIS129      0.0820
     61  ND1       25.6830   54.7880   24.7520 N.ar  129  HIS129     -0.2267
     62  CD2       25.2020   53.9750   22.7800 C.ar  129  HIS129      0.1154
     63  CE1       25.0310   55.7240   24.0900 C.ar  129  HIS129      0.1986
     64  NE2       24.7380   55.2610   22.8840 N.ar  129  HIS129     -0.2212
     65  N         26.2620   65.5910   15.3430 N.3   156  PHE156     -0.1227
     66  CA        27.2320   64.8220   16.1470 C.3   156  PHE156      0.1736
     67  C         26.5060   63.8640   17.0990 C.2   156  PHE156      0.2595
     68  O         25.3560   64.0940   17.4530 O.2   156  PHE156     -0.2718
     69  CB        28.1730   65.7500   16.9300 C.3   156  PHE156      0.0547
     70  CG        27.4540   66.7500   17.7880 C.ar  156  PHE156     -0.0202
     71  CD1       27.0220   66.4140   19.0730 C.ar  156  PHE156     -0.0042
     72  CD2       27.1860   68.0350   17.3070 C.ar  156  PHE156     -0.0042
     73  CE1       26.3240   67.3420   19.8680 C.ar  156  PHE156     -0.0003
     74  CE2       26.5040   68.9650   18.0980 C.ar  156  PHE156     -0.0003
     75  CZ        26.0760   68.6170   19.3800 C.ar  156  PHE156     -0.0000
     76  N         27.1670   62.7650   17.4430 N.am  157  TYR157     -0.1962
     77  CA        26.7640   61.8170   18.4760 C.3   157  TYR157      0.1771
     78  C         28.0800   61.2280   18.9730 C.2   157  TYR157      0.2620
     79  O         28.6070   60.2660   18.4090 O.2   157  TYR157     -0.2715
     80  CB        25.8910   60.6900   17.9580 C.3   157  TYR157      0.0574
     81  CG        25.2720   59.8180   19.0260 C.ar  157  TYR157     -0.0198
     82  CD1       25.7890   58.5610   19.3380 C.ar  157  TYR157     -0.0009
     83  CD2       24.1070   60.2290   19.6940 C.ar  157  TYR157     -0.0009
     84  CE1       25.2010   57.7540   20.2810 C.ar  157  TYR157      0.0417
     85  CE2       23.4940   59.4260   20.6180 C.ar  157  TYR157      0.0417
     86  CZ        24.0230   58.1810   20.9160 C.ar  157  TYR157      0.1957
     87  OH        23.4400   57.4020   21.8790 O.3   157  TYR157     -0.2866
     88  N         28.6080   61.8360   20.0110 N.am  158  GLY158     -0.1940
     89  CA        29.9160   61.4730   20.5230 C.3   158  GLY158      0.2014
     90  C         30.4220   62.5820   21.4270 C.2   158  GLY158      0.2639
     91  O         29.8270   63.6710   21.4850 O.2   158  GLY158     -0.2714
     92  N         31.5070   62.3040   22.1350 N.am  159  GLY159     -0.1954
     93  CA        32.1180   63.2590   23.0330 C.3   159  GLY159      0.1869
     94  C         32.1890   62.7160   24.4320 C.2   159  GLY159      0.2309
     95  O         31.8330   61.5680   24.7440 O.2   159  GLY159     -0.2863
@<TRIPOS>BOND
     1    65    66    1
     2    22    21    2
     3    66    69    1
     4    66    67    1
     5    69    70    1
     6    21    20    1
     7    67    76   am
     8    67    68    2
     9    72    70   ar
    10    72    74   ar
    11    76    77    1
    12    70    71   ar
    13    80    77    1
    14    80    81    1
    15    74    75   ar
    16    20    23    1
    17    20    19    1
    18    79    78    2
    19    77    78    1
    20    23    24    1
    21    78    88   am
    22    81    82   ar
    23    81    83   ar
    24    71    73   ar
    25    82    84   ar
    26    75    73   ar
    27    83    85   ar
    28    24    25    1
    29    88    89    1
    30    25    26    1
    31    84    86   ar
    32    89    90    1
    33    85    86   ar
    34    86    87    1
    35    29    27    1
    36    26    27    2
    37    27    28    1
    38    90    91    2
    39    90    92   am
    40    13    12    2
    41    92    93    1
    42    12    11    1
    43    62    64   ar
    44    62    60   ar
    45    30    31    1
    46    64    63   ar
    47    93    94    1
    48     4     3    2
    49    34    31    1
    50    34    35    1
    51    60    59    1
    52    60    61   ar
    53    31    32    1
    54    63    61   ar
    55    11    14    1
    56    11    10    1
    57    59    56    1
    58    94    95    2
    59    33    32    2
    60     3    10   am
    61     3     2    1
    62    14    15    1
    63    36    35    1
    64    36    37    1
    65     2     1    1
    66     2     5    1
    67    56    57    1
    68    56    55    1
    69    57    58    2
    70    15    16    1
    71    42    41    2
    72    37    38    1
    73    41    40    1
    74    16    17    1
    75     6     7    1
    76     6     5    1
    77    55    49   am
    78     7     8    1
    79    54    52   ar
    80    50    49    2
    81    39    40    1
    82    49    48    1
    83    40    43    1
    84    17    18    1
    85    52    53   ar
    86    52    51    1
    87     8     9    1
    88    43    44    1
    89    48    51    1
    90    48    47    1
    91    44    46   ar
    92    44    45   ar
