@<TRIPOS>MOLECULE
tmp/1yoaA00.pdb
 247 248 0 0 0
SMALL
GASTEIGER

@<TRIPOS>ATOM
      1  N         26.0940   56.8020    8.7040 N.3    17  LEU17      -0.1245
      2  CA        24.7600   56.7650    9.2690 C.3    17  LEU17       0.1561
      3  C         24.0250   55.5590    8.7460 C.2    17  LEU17       0.2260
      4  O         24.0190   55.2810    7.5410 O.2    17  LEU17      -0.2867
      5  CB        24.0200   58.0580    8.9790 C.3    17  LEU17       0.0270
      6  CG        24.4110   59.2270    9.8800 C.3    17  LEU17       0.0019
      7  CD1       23.9880   60.5160    9.2390 C.3    17  LEU17       0.0001
      8  CD2       23.7770   59.0660   11.2580 C.3    17  LEU17       0.0001
      9  N          6.5150   43.6180   18.7420 N.3    27  GLU27      -0.1245
     10  CA         7.4920   44.6370   19.1030 C.3    27  GLU27       0.1567
     11  C          8.4680   44.8250   17.9580 C.2    27  GLU27       0.2260
     12  O          9.1190   43.8740   17.5380 O.2    27  GLU27      -0.2867
     13  CB         8.2640   44.2390   20.3300 C.3    27  GLU27       0.0388
     14  CG         7.4570   44.3440   21.5770 C.3    27  GLU27       0.1160
     15  CD         8.2940   44.1190   22.8060 C.2    27  GLU27       0.3649
     16  OE1        8.1910   43.0190   23.3690 O.co2  27  GLU27      -0.2457
     17  OE2        9.0340   45.0330   23.1820 O.co2  27  GLU27      -0.2457
     18  N         11.4050   47.8060   16.5100 N.3    29  ALA29      -0.1231
     19  CA        12.1980   48.9920   16.7740 C.3    29  ALA29       0.1694
     20  C         13.1250   49.2570   15.5980 C.2    29  ALA29       0.2592
     21  O         13.6030   48.3380   14.9590 O.2    29  ALA29      -0.2718
     22  CB        13.0140   48.8240   18.0670 C.3    29  ALA29       0.0304
     23  N         13.3190   50.5270   15.3030 N.am   30  ALA30      -0.1966
     24  CA        14.2200   50.9570   14.2570 C.3    30  ALA30       0.1728
     25  C         14.8250   52.2530   14.7420 C.2    30  ALA30       0.2617
     26  O         14.1230   53.0990   15.2870 O.2    30  ALA30      -0.2715
     27  CB        13.4740   51.1550   12.9430 C.3    30  ALA30       0.0334
     28  N         16.1400   52.4010   14.5990 N.am   31  GLY31      -0.1940
     29  CA        16.7800   53.6240   15.0190 C.3    31  GLY31       0.2014
     30  C         17.9970   53.9650   14.2050 C.2    31  GLY31       0.2640
     31  O         18.7210   53.0680   13.7420 O.2    31  GLY31      -0.2714
     32  N         18.2140   55.2560   14.0100 N.am   32  THR32      -0.1936
     33  CA        19.4240   55.7100   13.3300 C.3    32  THR32       0.2028
     34  C         20.5990   55.6410   14.2940 C.2    32  THR32       0.2642
     35  O         20.5280   56.1140   15.4410 O.2    32  THR32      -0.2714
     36  CB        19.2480   57.1310   12.8520 C.3    32  THR32       0.1808
     37  OG1       18.1850   57.1810   11.8910 O.3    32  THR32      -0.2208
     38  CG2       20.5080   57.6420   12.0860 C.3    32  THR32       0.0379
     39  N         21.6830   55.0520   13.8160 N.am   33  VAL33      -0.1963
     40  CA        22.8970   54.8580   14.5960 C.3    33  VAL33       0.1727
     41  C         24.1420   55.2870   13.8060 C.2    33  VAL33       0.2616
     42  O         24.1650   55.2790   12.5650 O.2    33  VAL33      -0.2715
     43  CB        23.0580   53.3940   15.0860 C.3    33  VAL33       0.0290
     44  CG1       21.8830   53.0110   16.0220 C.3    33  VAL33       0.0023
     45  CG2       23.1990   52.4060   13.9670 C.3    33  VAL33       0.0023
     46  N         25.1730   55.6660   14.5550 N.am   34  ASN34      -0.1958
     47  CA        26.4740   55.9460   13.9810 C.3    34  ASN34       0.1819
     48  C         27.6200   55.0730   14.4860 C.2    34  ASN34       0.2621
     49  O         28.6130   54.9180   13.7750 O.2    34  ASN34      -0.2715
     50  CB        26.8060   57.4190   14.0840 C.3    34  ASN34       0.1195
     51  CG        27.1680   57.8530   15.4340 C.2    34  ASN34       0.2630
     52  OD1       28.1330   58.6000   15.6000 O.2    34  ASN34      -0.2716
     53  ND2       26.3750   57.4850   16.4220 N.am   34  ASN34      -0.0877
     54  N         27.5130   54.5760   15.7060 N.am   35  TRP35      -0.1974
     55  CA        28.6130   53.8430   16.3500 C.3    35  TRP35       0.1640
     56  C         28.6640   52.4130   15.8300 C.2    35  TRP35       0.2290
     57  O         28.2370   51.4710   16.4750 O.2    35  TRP35      -0.2864
     58  CB        28.4550   53.9020   17.8730 C.3    35  TRP35       0.0576
     59  CG        28.7050   55.2610   18.4550 C.ar   35  TRP35       0.0006
     60  CD1       29.1270   56.3640   17.8230 C.ar   35  TRP35       0.0946
     61  CD2       28.5650   55.6220   19.8440 C.ar   35  TRP35       0.0152
     62  NE1       29.2470   57.4040   18.7100 N.ar   35  TRP35      -0.2442
     63  CE2       28.9210   56.9590   19.9620 C.ar   35  TRP35       0.0810
     64  CE3       28.1730   54.9290   20.9870 C.ar   35  TRP35       0.0012
     65  CZ2       28.8620   57.6530   21.1820 C.ar   35  TRP35       0.0191
     66  CZ3       28.1320   55.6130   22.2240 C.ar   35  TRP35       0.0001
     67  CH2       28.4890   56.9410   22.3020 C.ar   35  TRP35       0.0015
     68  N         27.6280   50.1380   18.9400 N.3    49  GLY49      -0.1210
     69  CA        27.3860   50.7520   20.2440 C.3    49  GLY49       0.1956
     70  C         25.9060   51.1150   20.3720 C.2    49  GLY49       0.2612
     71  O         25.4370   52.0500   19.7060 O.2    49  GLY49      -0.2717
     72  N         25.2000   50.3960   21.2390 N.am   50  LEU50      -0.1965
     73  CA        23.7430   50.4700   21.3440 C.3    50  LEU50       0.1728
     74  C         23.3380   50.9330   22.7380 C.2    50  LEU50       0.2616
     75  O         23.6840   50.2950   23.7350 O.2    50  LEU50      -0.2715
     76  CB        23.1530   49.0880   21.1100 C.3    50  LEU50       0.0311
     77  CG        22.2550   48.8050   19.9140 C.3    50  LEU50       0.0022
     78  CD1       21.5370   47.5080   20.1320 C.3    50  LEU50       0.0001
     79  CD2       21.2970   49.9280   19.6020 C.3    50  LEU50       0.0001
     80  N         22.6050   52.0430   22.7980 N.am   51  LYS51      -0.1963
     81  CA        22.1720   52.6510   24.0660 C.3    51  LYS51       0.1728
     82  C         21.3990   51.6450   24.8990 C.2    51  LYS51       0.2616
     83  O         20.4330   51.0490   24.4350 O.2    51  LYS51      -0.2715
     84  CB        21.3250   53.9210   23.8160 C.3    51  LYS51       0.0311
     85  CG        20.8560   54.6230   25.0820 C.3    51  LYS51       0.0038
     86  CD        20.1700   55.9860   24.8170 C.3    51  LYS51       0.0206
     87  CE        19.6940   56.6470   26.1510 C.3    51  LYS51       0.1093
     88  NZ        20.7030   56.6090   27.2840 N.3    51  LYS51      -0.1314
     89  N         21.8340   51.4650   26.1400 N.am   52  ARG52      -0.1963
     90  CA        21.2980   50.4350   27.0100 C.3    52  ARG52       0.1729
     91  C         19.8030   50.6950   27.2580 C.2    52  ARG52       0.2616
     92  O         19.0160   49.7520   27.3280 O.2    52  ARG52      -0.2715
     93  CB        22.0800   50.4010   28.3370 C.3    52  ARG52       0.0348
     94  CG        21.3340   49.7640   29.5140 C.3    52  ARG52       0.0492
     95  CD        22.2380   49.2970   30.6680 C.3    52  ARG52       0.2205
     96  NE        23.1150   48.2230   30.2110 N.pl3  52  ARG52      -0.0865
     97  CZ        22.7330   46.9710   29.9540 C.cat  52  ARG52       0.5346
     98  NH1       21.4830   46.5660   30.1560 N.pl3  52  ARG52       0.1354
     99  NH2       23.6290   46.1020   29.4970 N.pl3  52  ARG52       0.1354
    100  N         19.4670   51.9740   27.3820 N.am   53  ASP53      -0.1957
    101  CA        18.1190   52.4640   27.7030 C.3    53  ASP53       0.1840
    102  C         17.3940   52.7690   26.3970 C.2    53  ASP53       0.2623
    103  O         17.0710   53.9400   26.0940 O.2    53  ASP53      -0.2715
    104  CB        18.2190   53.7320   28.5670 C.3    53  ASP53       0.1450
    105  CG        18.5620   53.4190   30.0150 C.2    53  ASP53       0.3671
    106  OD1       18.3920   54.3180   30.8890 O.co2  53  ASP53      -0.2456
    107  OD2       19.0000   52.3020   30.3840 O.co2  53  ASP53      -0.2456
    108  N         17.2030   51.7240   25.5960 N.am   54  SER54      -0.1936
    109  CA        16.4910   51.8570   24.3270 C.3    54  SER54       0.2055
    110  C         15.7300   50.5750   23.9840 C.2    54  SER54       0.2643
    111  O         16.0770   49.4610   24.4110 O.2    54  SER54      -0.2714
    112  CB        17.4600   52.2800   23.2040 C.3    54  SER54       0.2130
    113  OG        18.3010   51.1990   22.8280 O.3    54  SER54      -0.2179
    114  N         14.6690   50.7270   23.1850 N.am   55  HIS55      -0.1959
    115  CA        13.8740   49.5910   22.7670 C.3    55  HIS55       0.1787
    116  C         14.7010   48.7000   21.8490 C.2    55  HIS55       0.2620
    117  O         14.6340   47.4880   21.9460 O.2    55  HIS55      -0.2715
    118  CB        12.5770   50.0800   22.0940 C.3    55  HIS55       0.0785
    119  CG        11.5060   49.0420   21.9840 C.ar   55  HIS55       0.0821
    120  ND1       10.3830   49.2290   21.1990 N.ar   55  HIS55      -0.2267
    121  CD2       11.3850   47.8070   22.5280 C.ar   55  HIS55       0.1154
    122  CE1        9.6140   48.1590   21.2810 C.ar   55  HIS55       0.1986
    123  NE2       10.2020   47.2780   22.0740 N.ar   55  HIS55      -0.2212
    124  N         15.5030   49.3010   20.9720 N.am   56  LEU56      -0.1977
    125  CA        16.4030   48.5150   20.1310 C.3    56  LEU56       0.1596
    126  C         17.2580   47.5840   20.9590 C.2    56  LEU56       0.2287
    127  O         17.3720   46.4060   20.6580 O.2    56  LEU56      -0.2864
    128  CB        17.3080   49.4180   19.2960 C.3    56  LEU56       0.0297
    129  CG        16.7740   49.9350   17.9680 C.3    56  LEU56       0.0022
    130  CD1       17.7420   50.9890   17.4170 C.3    56  LEU56       0.0001
    131  CD2       16.5440   48.8140   17.0110 C.3    56  LEU56       0.0001
    132  N         16.7680   46.4080   23.9590 N.3    58  ALA58      -0.1245
    133  CA        15.9760   45.3860   24.6310 C.3    58  ALA58       0.1562
    134  C         15.6960   44.2250   23.6900 C.2    58  ALA58       0.2260
    135  O         15.9010   43.0530   24.0380 O.2    58  ALA58      -0.2867
    136  CB        14.6820   46.0070   25.1740 C.3    58  ALA58       0.0290
    137  N         17.4080   40.4250   23.7470 N.3    62  ARG62      -0.1245
    138  CA        16.4360   39.3500   23.9420 C.3    62  ARG62       0.1563
    139  C         16.4130   38.2920   22.8260 C.2    62  ARG62       0.2260
    140  O         16.3170   37.0970   23.0960 O.2    62  ARG62      -0.2867
    141  CB        15.0150   39.9630   24.0850 C.3    62  ARG62       0.0307
    142  CG        14.1820   39.3560   25.1960 C.3    62  ARG62       0.0489
    143  CD        13.1150   40.2980   25.7130 C.3    62  ARG62       0.2205
    144  NE        12.0870   40.4560   24.6990 N.pl3  62  ARG62      -0.0865
    145  CZ        11.3740   41.5530   24.4870 C.cat  62  ARG62       0.5346
    146  NH1       11.5550   42.6600   25.2040 N.pl3  62  ARG62       0.1354
    147  NH2       10.4540   41.5420   23.5370 N.pl3  62  ARG62       0.1354
    148  N         14.2630   58.3850   11.9280 N.3    82  PHE82      -0.1227
    149  CA        14.4950   57.3260   12.9020 C.3    82  PHE82       0.1736
    150  C         15.2790   57.7490   14.1420 C.2    82  PHE82       0.2595
    151  O         15.8230   56.9110   14.8610 O.2    82  PHE82      -0.2718
    152  CB        15.0960   56.1060   12.2080 C.3    82  PHE82       0.0547
    153  CG        14.1490   55.4870   11.2310 C.ar   82  PHE82      -0.0202
    154  CD1       13.1010   54.7060   11.6810 C.ar   82  PHE82      -0.0042
    155  CD2       14.2670   55.7260    9.8720 C.ar   82  PHE82      -0.0042
    156  CE1       12.1720   54.1400   10.7690 C.ar   82  PHE82      -0.0003
    157  CE2       13.3660   55.1850    8.9610 C.ar   82  PHE82      -0.0003
    158  CZ        12.3210   54.3790    9.4050 C.ar   82  PHE82      -0.0000
    159  N         15.2650   59.0550   14.4060 N.am   83  PHE83      -0.1962
    160  CA        15.6110   59.5800   15.7210 C.3    83  PHE83       0.1771
    161  C         14.3960   59.6760   16.6550 C.2    83  PHE83       0.2619
    162  O         14.5500   60.0180   17.8140 O.2    83  PHE83      -0.2715
    163  CB        16.1950   60.9750   15.5890 C.3    83  PHE83       0.0574
    164  CG        17.4550   61.0530   14.8110 C.ar   83  PHE83      -0.0200
    165  CD1       18.4530   60.1070   14.9620 C.ar   83  PHE83      -0.0042
    166  CD2       17.6890   62.1460   13.9760 C.ar   83  PHE83      -0.0042
    167  CE1       19.6460   60.2190   14.2270 C.ar   83  PHE83      -0.0003
    168  CE2       18.8510   62.2430   13.2490 C.ar   83  PHE83      -0.0003
    169  CZ        19.8260   61.2740   13.3830 C.ar   83  PHE83      -0.0000
    170  N         13.1980   59.4410   16.1300 N.am   84  LYS84      -0.1964
    171  CA        11.9700   59.4340   16.9340 C.3    84  LYS84       0.1713
    172  C         11.4650   58.0030   17.1200 C.2    84  LYS84       0.2458
    173  O         11.8940   57.0960   16.3770 O.2    84  LYS84      -0.2730
    174  CB        10.9290   60.3010   16.2490 C.3    84  LYS84       0.0311
    175  CG        10.3880   59.7440   14.9450 C.3    84  LYS84       0.0038
    176  CD         9.8530   60.8560   14.0670 C.3    84  LYS84       0.0206
    177  CE         9.0100   60.3020   12.9330 C.3    84  LYS84       0.1093
    178  NZ         8.1310   61.3340   12.3420 N.3    84  LYS84      -0.1314
    179  N         10.5650   57.7730   18.0870 N.am   85  PRO85      -0.2716
    180  CA        10.0900   56.4160   18.3490 C.3    85  PRO85       0.1536
    181  C          9.4630   55.8080   17.0920 C.2    85  PRO85       0.2599
    182  O          8.9660   56.5270   16.2350 O.2    85  PRO85      -0.2715
    183  CB         9.0570   56.6190   19.4710 C.3    85  PRO85       0.0310
    184  CG         9.5010   57.8600   20.1250 C.3    85  PRO85       0.0237
    185  CD         9.9190   58.7460   18.9960 C.3    85  PRO85       0.0939
    186  N          9.5500   54.4940   16.9900 N.am   86  THR86      -0.1951
    187  CA         9.1210   53.7680   15.8150 C.3    86  THR86       0.1897
    188  C          7.6170   53.5040   15.8260 C.2    86  THR86       0.2313
    189  O          7.1360   52.7600   16.6760 O.2    86  THR86      -0.2863
    190  CB         9.8260   52.4190   15.7680 C.3    86  THR86       0.1794
    191  OG1       11.2490   52.6210   15.8050 O.3    86  THR86      -0.2208
    192  CG2        9.5620   51.7510   14.4470 C.3    86  THR86       0.0378
    193  N         26.0710   52.5420   26.8560 N.3   129  HIS129     -0.1241
    194  CA        25.8450   51.7470   25.6410 C.3   129  HIS129      0.1621
    195  C         26.4890   50.3880   25.8410 C.2   129  HIS129      0.2264
    196  O         27.5330   50.2820   26.5290 O.2   129  HIS129     -0.2867
    197  CB        26.4870   52.4210   24.4160 C.3   129  HIS129      0.0745
    198  CG        25.7940   53.6630   23.9590 C.ar  129  HIS129      0.0817
    199  ND1       25.6830   54.7880   24.7520 N.ar  129  HIS129     -0.2268
    200  CD2       25.2020   53.9750   22.7800 C.ar  129  HIS129      0.1154
    201  CE1       25.0310   55.7240   24.0900 C.ar  129  HIS129      0.1986
    202  NE2       24.7380   55.2610   22.8840 N.ar  129  HIS129     -0.2212
    203  N         28.3570   61.1900    8.2400 N.3   150  MET150     -0.1245
    204  CA        27.8210   62.0510    9.2960 C.3   150  MET150      0.1570
    205  C         28.3030   63.4980    9.1990 C.2   150  MET150      0.2261
    206  O         27.5260   64.4060    9.4290 O.2   150  MET150     -0.2867
    207  CB        28.1090   61.4940   10.6850 C.3   150  MET150      0.0387
    208  CG        27.0230   61.8720   11.7060 C.3   150  MET150      0.0595
    209  SD        27.4920   61.2160   13.2980 S.3   150  MET150     -0.1393
    210  CE        26.3620   62.1480   14.2450 C.3   150  MET150      0.0692
    211  N         25.5070   66.8960   12.0280 N.3   155  TRP155     -0.1227
    212  CA        25.1290   66.2920   13.3060 C.3   155  TRP155      0.1737
    213  C         26.3430   65.6880   14.0160 C.2   155  TRP155      0.2595
    214  O         27.3170   65.3120   13.3600 O.2   155  TRP155     -0.2718
    215  CB        24.0990   65.1810   13.1050 C.3   155  TRP155      0.0564
    216  CG        22.8370   65.6030   12.4300 C.ar  155  TRP155      0.0003
    217  CD1       22.2380   66.8390   12.4680 C.ar  155  TRP155      0.0946
    218  CD2       22.0200   64.7880   11.5940 C.ar  155  TRP155      0.0152
    219  NE1       21.0920   66.8300   11.7010 N.ar  155  TRP155     -0.2442
    220  CE2       20.9340   65.5820   11.1550 C.ar  155  TRP155      0.0810
    221  CE3       22.1000   63.4640   11.1530 C.ar  155  TRP155      0.0012
    222  CZ2       19.9360   65.0860   10.3160 C.ar  155  TRP155      0.0191
    223  CZ3       21.1010   62.9700   10.3290 C.ar  155  TRP155      0.0001
    224  CH2       20.0390   63.7780    9.9150 C.ar  155  TRP155      0.0015
    225  N         26.2620   65.5910   15.3430 N.am  156  PHE156     -0.1962
    226  CA        27.2320   64.8220   16.1470 C.3   156  PHE156      0.1771
    227  C         26.5060   63.8640   17.0990 C.2   156  PHE156      0.2619
    228  O         25.3560   64.0940   17.4530 O.2   156  PHE156     -0.2715
    229  CB        28.1730   65.7500   16.9300 C.3   156  PHE156      0.0574
    230  CG        27.4540   66.7500   17.7880 C.ar  156  PHE156     -0.0200
    231  CD1       27.0220   66.4140   19.0730 C.ar  156  PHE156     -0.0042
    232  CD2       27.1860   68.0350   17.3070 C.ar  156  PHE156     -0.0042
    233  CE1       26.3240   67.3420   19.8680 C.ar  156  PHE156     -0.0003
    234  CE2       26.5040   68.9650   18.0980 C.ar  156  PHE156     -0.0003
    235  CZ        26.0760   68.6170   19.3800 C.ar  156  PHE156     -0.0000
    236  N         27.1670   62.7650   17.4430 N.am  157  TYR157     -0.1974
    237  CA        26.7640   61.8170   18.4760 C.3   157  TYR157      0.1639
    238  C         28.0800   61.2280   18.9730 C.2   157  TYR157      0.2290
    239  O         28.6070   60.2660   18.4090 O.2   157  TYR157     -0.2864
    240  CB        25.8910   60.6900   17.9580 C.3   157  TYR157      0.0560
    241  CG        25.2720   59.8180   19.0260 C.ar  157  TYR157     -0.0198
    242  CD1       25.7890   58.5610   19.3380 C.ar  157  TYR157     -0.0009
    243  CD2       24.1070   60.2290   19.6940 C.ar  157  TYR157     -0.0009
    244  CE1       25.2010   57.7540   20.2810 C.ar  157  TYR157      0.0417
    245  CE2       23.4940   59.4260   20.6180 C.ar  157  TYR157      0.0417
    246  CZ        24.0230   58.1810   20.9160 C.ar  157  TYR157      0.1957
    247  OH        23.4400   57.4020   21.8790 O.3   157  TYR157     -0.2866
@<TRIPOS>BOND
     1     4     3    2
     2   203   204    1
     3     1     2    1
     4     3     2    1
     5   157   158   ar
     6   157   155   ar
     7     5     2    1
     8     5     6    1
     9   205   204    1
    10   205   206    2
    11     7     6    1
    12   204   207    1
    13   158   156   ar
    14   155   153   ar
    15     6     8    1
    16   224   222   ar
    17   224   223   ar
    18   222   220   ar
    19   223   221   ar
    20   207   208    1
    21   156   154   ar
    22   221   218   ar
    23   220   218   ar
    24   220   219   ar
    25   153   154   ar
    26   153   152    1
    27   218   216   ar
    28   219   217   ar
    29   208   209    1
    30    37    36    1
    31   148   149    1
    32   211   212    1
    33    38    36    1
    34   152   149    1
    35   178   177    1
    36   216   217   ar
    37   216   215    1
    38    42    41    2
    39    36    33    1
    40   149   150    1
    41   177   176    1
    42    27    24    1
    43   215   212    1
    44   168   169   ar
    45   168   166   ar
    46   209   210    1
    47   212   213    1
    48    33    32    1
    49    33    34    1
    50   214   213    2
    51   169   167   ar
    52    31    30    2
    53    49    48    2
    54    41    46   am
    55    41    40    1
    56    39    34   am
    57    39    40    1
    58    45    43    1
    59   166   164   ar
    60    47    50    1
    61    47    48    1
    62    47    46    1
    63    32    30   am
    64   213   225   am
    65   176   175    1
    66    50    51    1
    67   150   159   am
    68   150   151    2
    69    30    29    1
    70   167   165   ar
    71    24    25    1
    72    24    23    1
    73    34    35    2
    74   159   160    1
    75   192   190    1
    76    48    54   am
    77    40    43    1
    78    28    25   am
    79    28    29    1
    80    25    26    2
    81   164   165   ar
    82   164   163    1
    83   175   174    1
    84    21    20    2
    85    43    44    1
    86    23    20   am
    87   225   226    1
    88    51    52    2
    89    51    53   am
    90   163   160    1
    91    20    19    1
    92    54    55    1
    93   160   161    1
    94   190   191    1
    95   190   187    1
    96   187   188    1
    97   187   186    1
    98   188   189    2
    99    56    55    1
   100    56    57    2
   101   170   161   am
   102   170   171    1
   103   226   229    1
   104   226   227    1
   105   182   181    2
   106   174   171    1
   107    55    58    1
   108   173   172    2
   109    18    19    1
   110   161   162    2
   111    19    22    1
   112   229   230    1
   113   171   172    1
   114   186   181   am
   115   131   129    1
   116   181   180    1
   117   227   236   am
   118   227   228    2
   119   172   179   am
   120   232   230   ar
   121   232   234   ar
   122   130   129    1
   123   236   237    1
   124    12    11    2
   125   230   231   ar
   126    60    59   ar
   127    60    62   ar
   128    58    59    1
   129   240   237    1
   130   240   241    1
   131    11    10    1
   132   129   128    1
   133   179   180    1
   134   179   185    1
   135   234   235   ar
   136   180   183    1
   137   239   238    2
   138    59    61   ar
   139   237   238    1
   140    62    63   ar
   141     9    10    1
   142    68    69    1
   143   185   184    1
   144   241   242   ar
   145   241   243   ar
   146   231   233   ar
   147    10    13    1
   148   128   125    1
   149   242   244   ar
   150   235   233   ar
   151   183   184    1
   152    79    77    1
   153   243   245   ar
   154    71    70    2
   155    61    63   ar
   156    61    64   ar
   157    77    78    1
   158    77    76    1
   159    63    65   ar
   160   125   126    1
   161   125   124    1
   162    69    70    1
   163   244   246   ar
   164    13    14    1
   165    70    72   am
   166   245   246   ar
   167   127   126    2
   168   246   247    1
   169   124   116   am
   170    64    66   ar
   171    76    73    1
   172    65    67   ar
   173   120   122   ar
   174   120   119   ar
   175    72    73    1
   176   122   123   ar
   177    73    74    1
   178    14    15    1
   179   116   117    2
   180   116   115    1
   181   119   118    1
   182   119   121   ar
   183   123   121   ar
   184   118   115    1
   185    66    67   ar
   186    74    80   am
   187    74    75    2
   188   115   114    1
   189   200   202   ar
   190   200   198   ar
   191    80    81    1
   192    15    17   ar
   193    15    16   ar
   194   139   140    2
   195   139   138    1
   196   113   112    1
   197   202   201   ar
   198   114   110   am
   199   112   109    1
   200   147   145    1
   201   134   135    2
   202   134   133    1
   203   137   138    1
   204    84    81    1
   205    84    85    1
   206   138   141    1
   207   132   133    1
   208   198   197    1
   209   198   199   ar
   210   110   109    1
   211   110   111    2
   212    81    82    1
   213   141   142    1
   214   201   199   ar
   215   109   108    1
   216   197   194    1
   217    83    82    2
   218   145   144    2
   219   145   146    1
   220   133   136    1
   221   144   143    1
   222    86    85    1
   223    86    87    1
   224    82    89   am
   225   142   143    1
   226   108   102   am
   227   194   195    1
   228   194   193    1
   229   195   196    2
   230   103   102    2
   231    89    90    1
   232    87    88    1
   233   102   101    1
   234    90    91    1
   235    90    93    1
   236    91    92    2
   237    91   100   am
   238   100   101    1
   239   101   104    1
   240    93    94    1
   241   104   105    1
   242    99    97    1
   243    94    95    1
   244    97    98    1
   245    97    96    2
   246   105   107   ar
   247   105   106   ar
   248    96    95    1
