@<TRIPOS>MOLECULE
tmp/1yobA00.pdb
 162 158 0 0 0
SMALL
GASTEIGER

@<TRIPOS>ATOM
      1  N         33.1610   38.7600  106.3520 N.3     9  SER9       -0.1202
      2  CA        33.0000   37.3420  106.0590 C.3     9  SER9        0.2020
      3  C         33.9080   36.4510  106.8870 C.2     9  SER9        0.2619
      4  O         35.0120   36.8480  107.2580 O.2     9  SER9       -0.2717
      5  CB        33.2860   37.1140  104.5690 C.3     9  SER9        0.2103
      6  OG        33.0260   35.7850  104.1710 O.3     9  SER9       -0.2182
      7  N         33.4420   35.2370  107.1670 N.am   10  ASN10      -0.1960
      8  CA        34.2450   34.2900  107.9210 C.3    10  ASN10       0.1819
      9  C         34.6020   33.0670  107.1000 C.2    10  ASN10       0.2622
     10  O         35.6840   32.5030  107.2690 O.2    10  ASN10      -0.2715
     11  CB        33.5380   33.8390  109.1960 C.3    10  ASN10       0.1195
     12  CG        34.4340   32.9730  110.0540 C.2    10  ASN10       0.2630
     13  OD1       35.6290   33.2590  110.1790 O.2    10  ASN10      -0.2716
     14  ND2       33.8710   31.9140  110.6530 N.am   10  ASN10      -0.0877
     15  N         33.6920   32.6380  106.2270 N.am   11  THR11      -0.1937
     16  CA        33.9730   31.4820  105.3850 C.3    11  THR11       0.2028
     17  C         34.0300   31.8360  103.8930 C.2    11  THR11       0.2643
     18  O         34.1100   30.9540  103.0400 O.2    11  THR11      -0.2714
     19  CB        32.9640   30.3180  105.6350 C.3    11  THR11       0.1808
     20  OG1       31.6210   30.7870  105.5090 O.3    11  THR11      -0.2208
     21  CG2       33.1500   29.7510  107.0310 C.3    11  THR11       0.0379
     22  N         33.9840   33.1290  103.5830 N.am   12  GLY12      -0.1939
     23  CA        34.0930   33.5710  102.2020 C.3    12  GLY12       0.2014
     24  C         32.8780   33.7630  101.3050 C.2    12  GLY12       0.2639
     25  O         33.0190   34.2980  100.2040 O.2    12  GLY12      -0.2714
     26  N         31.6930   33.3430  101.7320 N.am   13  LYS13      -0.1963
     27  CA        30.5220   33.5150  100.8790 C.3    13  LYS13       0.1728
     28  C         30.1960   34.9900  100.6270 C.2    13  LYS13       0.2616
     29  O         30.0550   35.4060   99.4840 O.2    13  LYS13      -0.2715
     30  CB        29.2940   32.8180  101.4780 C.3    13  LYS13       0.0311
     31  CG        29.2280   31.3150  101.2260 C.3    13  LYS13       0.0038
     32  CD        29.6890   30.4970  102.4210 C.3    13  LYS13       0.0206
     33  CE        28.5240   29.6880  103.0280 C.3    13  LYS13       0.1093
     34  NZ        28.9860   28.7040  104.0680 N.3    13  LYS13      -0.1314
     35  N         30.0800   35.7770  101.6930 N.am   14  THR14      -0.1951
     36  CA        29.7550   37.1890  101.5490 C.3    14  THR14       0.1897
     37  C         30.7680   37.8570  100.6190 C.2    14  THR14       0.2313
     38  O         30.4090   38.7000   99.7870 O.2    14  THR14      -0.2863
     39  CB        29.7250   37.8860  102.9250 C.3    14  THR14       0.1794
     40  OG1       28.8430   37.1690  103.8040 O.3    14  THR14      -0.2208
     41  CG2       29.2160   39.3070  102.7820 C.3    14  THR14       0.0378
     42  N         27.2910   38.4190  106.7780 N.3    55  PRO55      -0.2102
     43  CA        26.5610   37.1860  107.0590 C.3    55  PRO55       0.1504
     44  C         26.1140   37.3790  108.5020 C.2    55  PRO55       0.2576
     45  O         26.4150   38.4080  109.0990 O.2    55  PRO55      -0.2718
     46  CB        27.6430   36.1160  106.9370 C.3    55  PRO55       0.0282
     47  CG        28.8490   36.8220  107.4650 C.3    55  PRO55       0.0208
     48  CD        28.7480   38.1880  106.8090 C.3    55  PRO55       0.0893
     49  N         25.3950   36.4060  109.0450 N.am   56  THR56      -0.1939
     50  CA        24.9610   36.4450  110.4350 C.3    56  THR56       0.2028
     51  C         25.5950   35.2300  111.1050 C.2    56  THR56       0.2642
     52  O         25.5130   34.1300  110.5730 O.2    56  THR56      -0.2714
     53  CB        23.4380   36.3260  110.5630 C.3    56  THR56       0.1808
     54  OG1       22.8110   37.4450  109.9290 O.3    56  THR56      -0.2208
     55  CG2       23.0410   36.2990  112.0340 C.3    56  THR56       0.0379
     56  N         26.2300   35.4200  112.2600 N.am   57  LEU57      -0.1963
     57  CA        26.8670   34.2960  112.9490 C.3    57  LEU57       0.1731
     58  C         26.3410   34.0320  114.3560 C.2    57  LEU57       0.2656
     59  O         25.3980   34.6790  114.8070 O.2    57  LEU57      -0.2711
     60  CB        28.3880   34.4820  112.9920 C.3    57  LEU57       0.0311
     61  CG        29.1160   34.5460  111.6450 C.3    57  LEU57       0.0022
     62  CD1       30.6190   34.4680  111.8860 C.3    57  LEU57       0.0001
     63  CD2       28.6720   33.4060  110.7410 C.3    57  LEU57       0.0001
     64  N         26.9680   33.0660  115.0270 N.am   58  GLY58      -0.1716
     65  CA        26.5840   32.6610  116.3700 C.2    58  GLY58       0.1480
     66  C         25.6330   33.5540  117.1410 C.2    58  GLY58       0.2820
     67  O         25.9520   34.6990  117.4470 O.2    58  GLY58      -0.2669
     68  N         24.4590   33.0300  117.4610 N.am   59  GLU59      -0.1929
     69  CA        23.4690   33.7910  118.2150 C.3    59  GLU59       0.1736
     70  C         22.9470   34.9980  117.4440 C.2    59  GLU59       0.2617
     71  O         22.7760   36.0690  118.0210 O.2    59  GLU59      -0.2715
     72  CB        24.0670   34.2820  119.5420 C.3    59  GLU59       0.0429
     73  CG        23.5350   33.5990  120.7920 C.3    59  GLU59       0.1163
     74  CD        24.0420   32.1780  120.9550 C.2    59  GLU59       0.3649
     75  OE1       23.8410   31.5920  122.0450 O.co2  59  GLU59      -0.2457
     76  OE2       24.6400   31.6440  119.9930 O.co2  59  GLU59      -0.2457
     77  N         22.6910   34.8280  116.1500 N.am   60  GLY60      -0.1955
     78  CA        22.1880   35.9340  115.3510 C.3    60  GLY60       0.1869
     79  C         22.9630   37.2280  115.5540 C.2    60  GLY60       0.2309
     80  O         22.3670   38.2910  115.7170 O.2    60  GLY60      -0.2863
     81  N         31.4530   36.3780  117.9720 N.3    67  SER67      -0.1217
     82  CA        30.7310   35.3260  117.2740 C.3    67  SER67       0.1889
     83  C         31.6800   34.2190  116.7830 C.2    67  SER67       0.2288
     84  O         31.2780   33.3370  116.0150 O.2    67  SER67      -0.2866
     85  CB        29.9370   35.9220  116.1010 C.3    67  SER67       0.2089
     86  OG        30.6650   36.9320  115.4170 O.3    67  SER67      -0.2183
     87  N         23.7530   37.5470  104.1100 N.3    96  LEU96      -0.1231
     88  CA        23.7190   36.1260  103.8040 C.3    96  LEU96       0.1693
     89  C         23.3350   35.4700  105.1260 C.2    96  LEU96       0.2593
     90  O         23.6060   36.0170  106.1980 O.2    96  LEU96      -0.2718
     91  CB        25.0960   35.5880  103.3640 C.3    96  LEU96       0.0284
     92  CG        25.9610   36.2310  102.2690 C.3    96  LEU96       0.0019
     93  CD1       26.8200   35.1360  101.6250 C.3    96  LEU96       0.0001
     94  CD2       25.1100   36.9010  101.2150 C.3    96  LEU96       0.0001
     95  N         22.7020   34.3070  105.0420 N.am   97  GLY97      -0.1942
     96  CA        22.2990   33.5890  106.2330 C.3    97  GLY97       0.2014
     97  C         21.8030   32.1990  105.8830 C.2    97  GLY97       0.2638
     98  O         21.7560   31.8170  104.7140 O.2    97  GLY97      -0.2714
     99  N         21.4420   31.4320  106.9020 N.am   98  ASP98      -0.1971
    100  CA        20.9330   30.0850  106.6960 C.3    98  ASP98       0.1709
    101  C         19.5420   30.0430  107.2950 C.2    98  ASP98       0.2293
    102  O         19.3840   29.9120  108.5120 O.2    98  ASP98      -0.2864
    103  CB        21.8370   29.0740  107.3890 C.3    98  ASP98       0.1436
    104  CG        21.2380   27.6850  107.4280 C.2    98  ASP98       0.3671
    105  OD1       21.9360   26.7590  107.8820 O.co2  98  ASP98      -0.2456
    106  OD2       20.0710   27.5160  107.0130 O.co2  98  ASP98      -0.2456
    107  N         18.5510   28.3520  110.9500 N.3   102  TYR102     -0.1241
    108  CA        18.2710   29.4390  111.8870 C.3   102  TYR102      0.1605
    109  C         17.0010   30.1870  111.5130 C.2   102  TYR102      0.2264
    110  O         17.0170   31.4050  111.2870 O.2   102  TYR102     -0.2867
    111  CB        19.4550   30.4000  111.9400 C.3   102  TYR102      0.0534
    112  CG        20.7660   29.6900  112.1720 C.ar  102  TYR102     -0.0201
    113  CD1       21.4660   29.1250  111.1090 C.ar  102  TYR102     -0.0009
    114  CD2       21.2840   29.5400  113.4570 C.ar  102  TYR102     -0.0009
    115  CE1       22.6460   28.4270  111.3110 C.ar  102  TYR102      0.0417
    116  CE2       22.4660   28.8390  113.6760 C.ar  102  TYR102      0.0417
    117  CZ        23.1420   28.2840  112.5940 C.ar  102  TYR102      0.1957
    118  OH        24.3160   27.5890  112.7860 O.3   102  TYR102     -0.2866
    119  N         16.4190   33.4530  113.3030 N.3   105  ASN105     -0.1225
    120  CA        17.4760   34.4600  113.3030 C.3   105  ASN105      0.1785
    121  C         18.0190   34.6980  111.8980 C.2   105  ASN105      0.2597
    122  O         19.1430   35.1800  111.7250 O.2   105  ASN105     -0.2718
    123  CB        18.6090   34.0260  114.2350 C.3   105  ASN105      0.1169
    124  CG        18.1740   33.9770  115.6910 C.2   105  ASN105      0.2627
    125  OD1       18.0260   35.0160  116.3420 O.2   105  ASN105     -0.2716
    126  ND2       17.9530   32.7730  116.2020 N.am  105  ASN105     -0.0877
    127  N         17.2160   34.3560  110.8940 N.am  106  TYR106     -0.1962
    128  CA        17.6350   34.5410  109.5130 C.3   106  TYR106      0.1771
    129  C         17.9660   36.0020  109.2220 C.2   106  TYR106      0.2619
    130  O         17.0880   36.8640  109.2440 O.2   106  TYR106     -0.2715
    131  CB        16.5440   34.0560  108.5430 C.3   106  TYR106      0.0574
    132  CG        16.9740   34.1420  107.0960 C.ar  106  TYR106     -0.0198
    133  CD1       18.2280   33.6750  106.7020 C.ar  106  TYR106     -0.0009
    134  CD2       16.1400   34.7000  106.1200 C.ar  106  TYR106     -0.0009
    135  CE1       18.6520   33.7610  105.3800 C.ar  106  TYR106      0.0417
    136  CE2       16.5560   34.7880  104.7810 C.ar  106  TYR106      0.0417
    137  CZ        17.8190   34.3170  104.4270 C.ar  106  TYR106      0.1957
    138  OH        18.2670   34.4110  103.1330 O.3   106  TYR106     -0.2866
    139  N         19.2460   36.2660  108.9800 N.am  107  LEU107     -0.1977
    140  CA        19.7440   37.6020  108.6490 C.3   107  LEU107      0.1596
    141  C         19.6930   38.6620  109.7450 C.2   107  LEU107      0.2287
    142  O         19.6780   39.8570  109.4490 O.2   107  LEU107     -0.2864
    143  CB        19.0190   38.1450  107.4120 C.3   107  LEU107      0.0297
    144  CG        19.1030   37.3440  106.1070 C.3   107  LEU107      0.0022
    145  CD1       18.5590   38.2110  104.9780 C.3   107  LEU107      0.0001
    146  CD2       20.5470   36.9490  105.8010 C.3   107  LEU107      0.0001
    147  N         23.1980   31.1010  100.5410 N.3   153  LEU153     -0.1231
    148  CA        23.9970   30.2300   99.6970 C.3   153  LEU153      0.1693
    149  C         24.1610   28.8460  100.3220 C.2   153  LEU153      0.2592
    150  O         24.8470   27.9820   99.7700 O.2   153  LEU153     -0.2718
    151  CB        25.3740   30.8450   99.4140 C.3   153  LEU153      0.0284
    152  CG        25.5130   32.3430   99.0980 C.3   153  LEU153      0.0019
    153  CD1       26.6740   32.5150   98.1370 C.3   153  LEU153      0.0001
    154  CD2       24.2370   32.9250   98.5050 C.3   153  LEU153      0.0001
    155  N         23.5340   28.6420  101.4760 N.am  154  ASP154     -0.1974
    156  CA        23.5940   27.3450  102.1380 C.3   154  ASP154      0.1709
    157  C         22.4660   26.5070  101.5580 C.2   154  ASP154      0.2293
    158  O         22.6770   25.3640  101.1700 O.2   154  ASP154     -0.2864
    159  CB        23.3950   27.4730  103.6580 C.3   154  ASP154      0.1436
    160  CG        24.6430   27.9790  104.3840 C.2   154  ASP154      0.3671
    161  OD1       24.4870   28.7690  105.3420 O.co2 154  ASP154     -0.2456
    162  OD2       25.7690   27.5820  104.0160 O.co2 154  ASP154     -0.2456
@<TRIPOS>BOND
     1   153   152    1
     2   154   152    1
     3   152   151    1
     4   151   148    1
     5    29    28    2
     6   148   149    1
     7   148   147    1
     8   150   149    2
     9    38    37    2
    10    25    24    2
    11   149   155   am
    12    37    36    1
    13    28    27    1
    14    28    35   am
    15    27    30    1
    16    27    26    1
    17   158   157    2
    18    94    92    1
    19    31    30    1
    20    31    32    1
    21    24    26   am
    22    24    23    1
    23   155   156    1
    24    36    35    1
    25    36    39    1
    26   157   156    1
    27    93    92    1
    28   156   159    1
    29    23    22    1
    30    92    91    1
    31    32    33    1
    32    41    39    1
    33    39    40    1
    34    33    34    1
    35    18    17    2
    36   138   137    1
    37    91    88    1
    38    22    17   am
    39   159   160    1
    40    88    87    1
    41    88    89    1
    42    17    16    1
    43   162   160   ar
    44     6     5    1
    45   160   161   ar
    46   137   136   ar
    47   137   135   ar
    48     5     2    1
    49    98    97    2
    50   136   134   ar
    51   145   144    1
    52    95    89   am
    53    95    96    1
    54    89    90    2
    55   135   133   ar
    56    16    19    1
    57    16    15    1
    58    20    19    1
    59    19    21    1
    60   146   144    1
    61    97    96    1
    62    97    99   am
    63     2     1    1
    64     2     3    1
    65   144   143    1
    66   134   132   ar
    67    15     9   am
    68   100    99    1
    69   100   101    1
    70   100   103    1
    71   133   132   ar
    72    42    48    1
    73    42    43    1
    74    48    47    1
    75     3     7   am
    76     3     4    2
    77    46    43    1
    78    46    47    1
    79   106   104   ar
    80    43    44    1
    81   132   131    1
    82     9    10    2
    83     9     8    1
    84     7     8    1
    85   101   102    2
    86   103   104    1
    87   143   140    1
    88   104   105   ar
    89     8    11    1
    90    44    49   am
    91    44    45    2
    92   131   128    1
    93   140   139    1
    94   140   141    1
    95   139   129   am
    96    49    50    1
    97    11    12    1
    98   129   130    2
    99   129   128    1
   100   142   141    2
   101   128   127    1
   102    54    53    1
   103    12    13    2
   104    12    14   am
   105    50    53    1
   106    50    51    1
   107    53    55    1
   108    52    51    2
   109    63    61    1
   110   127   121   am
   111   107   108    1
   112    51    56   am
   113   113   115   ar
   114   113   112   ar
   115   110   109    2
   116   115   117   ar
   117   109   108    1
   118    61    62    1
   119    61    60    1
   120   122   121    2
   121   108   111    1
   122   121   120    1
   123   111   112    1
   124   112   114   ar
   125    56    57    1
   126   117   118    1
   127   117   116   ar
   128    57    60    1
   129    57    58    1
   130   120   119    1
   131   120   123    1
   132   114   116   ar
   133   123   124    1
   134    58    59    2
   135    58    64    1
   136    64    65    2
   137    78    79    1
   138    78    77    1
   139    86    85    1
   140    79    80    2
   141   124   126   am
   142   124   125    2
   143    84    83    2
   144    85    82    1
   145    77    70   am
   146    65    66    1
   147    83    82    1
   148    66    67    2
   149    66    68   am
   150    82    81    1
   151    70    71    2
   152    70    69    1
   153    68    69    1
   154    69    72    1
   155    72    73    1
   156    76    74   ar
   157    73    74    1
   158    74    75   ar
