@<TRIPOS>MOLECULE
tmp/1yoeA00.pdb
 106 99 0 0 0
SMALL
GASTEIGER

@<TRIPOS>ATOM
      1  N        -12.4740   21.1210   32.8290 N.3    15  ASP15      -0.1225
      2  CA       -11.1420   21.0300   32.2290 C.3    15  ASP15       0.1805
      3  C        -10.2610   19.9950   32.9350 C.2    15  ASP15       0.2597
      4  O         -9.4460   19.3410   32.2790 O.2    15  ASP15      -0.2718
      5  CB       -10.4690   22.3910   32.0930 C.3    15  ASP15       0.1424
      6  CG       -10.2790   23.0810   33.4000 C.2    15  ASP15       0.3668
      7  OD1      -11.1240   22.9100   34.3090 O.co2  15  ASP15      -0.2456
      8  OD2       -9.3140   23.8510   33.5860 O.co2  15  ASP15      -0.2456
      9  N        -10.4460   19.8110   34.2480 N.am   16  ASP16      -0.1974
     10  CA        -9.7610   18.7160   34.9470 C.3    16  ASP16       0.1709
     11  C        -10.1320   17.3950   34.2990 C.2    16  ASP16       0.2293
     12  O         -9.2770   16.5410   34.0760 O.2    16  ASP16      -0.2864
     13  CB       -10.1660   18.6000   36.4220 C.3    16  ASP16       0.1436
     14  CG        -9.8800   19.8360   37.2150 C.2    16  ASP16       0.3671
     15  OD1      -10.7230   20.7700   37.1830 O.co2  16  ASP16      -0.2456
     16  OD2       -8.8490   19.9580   37.9280 O.co2  16  ASP16      -0.2456
     17  N        -13.1870   23.6780   42.7220 N.3    40  ASN40      -0.1240
     18  CA       -14.3020   23.8010   41.7740 C.3    40  ASN40       0.1653
     19  C        -15.6210   23.4120   42.4100 C.2    40  ASN40       0.2266
     20  O        -16.6400   24.0760   42.1930 O.2    40  ASN40      -0.2867
     21  CB       -14.0930   22.9060   40.5560 C.3    40  ASN40       0.1155
     22  CG       -13.4420   23.6290   39.4060 C.2    40  ASN40       0.2627
     23  OD1      -13.7100   24.8070   39.1710 O.2    40  ASN40      -0.2716
     24  ND2      -12.5780   22.9260   38.6790 N.am   40  ASN40      -0.0877
     25  N        -16.2460   27.2330   43.0440 N.3    79  ALA79      -0.1245
     26  CA       -16.4720   27.9380   41.7740 C.3    79  ALA79       0.1562
     27  C        -17.9040   28.4610   41.6070 C.2    79  ALA79       0.2260
     28  O        -18.8450   27.9590   42.2360 O.2    79  ALA79      -0.2867
     29  CB       -16.0830   27.0600   40.5870 C.3    79  ALA79       0.0290
     30  N         -4.0210   20.2620   39.3950 N.3   120  THR120     -0.1218
     31  CA        -4.7970   21.2060   38.5880 C.3   120  THR120      0.1862
     32  C         -5.9830   21.8270   39.3330 C.2   120  THR120      0.2287
     33  O         -6.8410   22.4750   38.7250 O.2   120  THR120     -0.2866
     34  CB        -5.2700   20.5280   37.2830 C.3   120  THR120      0.1770
     35  OG1       -6.0780   19.3800   37.6000 O.3   120  THR120     -0.2211
     36  CG2       -4.0750   19.9550   36.4730 C.3   120  THR120      0.0375
     37  N         -1.5670   23.7260   37.2900 N.3   146  MET146     -0.1245
     38  CA        -2.3420   24.7420   36.6090 C.3   146  MET146      0.1570
     39  C         -2.7310   25.7070   37.7270 C.2   146  MET146      0.2261
     40  O         -3.3970   25.3290   38.6900 O.2   146  MET146     -0.2867
     41  CB        -3.5740   24.1790   35.8930 C.3   146  MET146      0.0387
     42  CG        -4.2920   25.2320   35.0080 C.3   146  MET146      0.0595
     43  SD        -5.2460   26.4290   35.9970 S.3   146  MET146     -0.1393
     44  CE        -4.7040   28.0000   35.2810 C.3   146  MET146      0.0692
     45  N         -8.2740   35.8340   37.3410 N.3   154  ASN154     -0.1240
     46  CA        -9.6290   35.5270   36.8690 C.3   154  ASN154      0.1653
     47  C        -10.6150   35.3790   38.0240 C.2   154  ASN154      0.2266
     48  O        -11.7890   35.1170   37.8000 O.2   154  ASN154     -0.2867
     49  CB        -9.6540   34.2910   35.9540 C.3   154  ASN154      0.1155
     50  CG        -9.2440   33.0120   36.6660 C.2   154  ASN154      0.2627
     51  OD1       -8.8040   33.0480   37.8140 O.2   154  ASN154     -0.2716
     52  ND2       -9.3870   31.8700   35.9800 N.am  154  ASN154     -0.0877
     53  N         -5.5120   34.3050   40.3710 N.3   160  GLU160     -0.1231
     54  CA        -6.1940   33.1960   39.6940 C.3   160  GLU160      0.1699
     55  C         -6.8800   32.3010   40.7560 C.2   160  GLU160      0.2592
     56  O         -6.4110   32.2010   41.8920 O.2   160  GLU160     -0.2718
     57  CB        -5.1720   32.4360   38.8220 C.3   160  GLU160      0.0402
     58  CG        -5.6960   31.1950   38.1050 C.3   160  GLU160      0.1161
     59  CD        -5.7470   29.9860   39.0250 C.2   160  GLU160      0.3649
     60  OE1       -4.9310   29.9100   39.9810 O.co2 160  GLU160     -0.2457
     61  OE2       -6.6230   29.1240   38.8110 O.co2 160  GLU160     -0.2457
     62  N         -7.9910   31.6630   40.3770 N.am  161  PHE161     -0.1962
     63  CA        -8.8290   30.8700   41.2810 C.3   161  PHE161      0.1771
     64  C         -8.1030   29.8330   42.1370 C.2   161  PHE161      0.2619
     65  O         -8.2190   29.8620   43.3720 O.2   161  PHE161     -0.2715
     66  CB        -9.9330   30.1820   40.4730 C.3   161  PHE161      0.0574
     67  CG       -10.8150   29.2830   41.2910 C.ar  161  PHE161     -0.0200
     68  CD1      -11.7600   29.8180   42.1610 C.ar  161  PHE161     -0.0042
     69  CD2      -10.7110   27.8980   41.1630 C.ar  161  PHE161     -0.0042
     70  CE1      -12.5950   28.9840   42.9160 C.ar  161  PHE161     -0.0003
     71  CE2      -11.5460   27.0520   41.9130 C.ar  161  PHE161     -0.0003
     72  CZ       -12.4850   27.6000   42.7840 C.ar  161  PHE161     -0.0000
     73  N         -7.3450   28.9310   41.5090 N.am  162  ASN162     -0.1972
     74  CA        -6.7060   27.8460   42.2600 C.3   162  ASN162      0.1688
     75  C         -5.7720   28.3120   43.3580 C.2   162  ASN162      0.2292
     76  O         -5.7630   27.7430   44.4530 O.2   162  ASN162     -0.2864
     77  CB        -5.9400   26.9220   41.3260 C.3   162  ASN162      0.1181
     78  CG        -6.8530   26.0580   40.4780 C.2   162  ASN162      0.2629
     79  OD1       -8.0380   25.8940   40.7700 O.2   162  ASN162     -0.2716
     80  ND2       -6.2970   25.5000   39.4200 N.am  162  ASN162     -0.0877
     81  N         -2.5670   31.6170   33.8590 N.3   185  LEU185     -0.1245
     82  CA        -3.5050   32.2270   32.9040 C.3   185  LEU185      0.1561
     83  C         -2.8330   32.8560   31.6830 C.2   185  LEU185      0.2260
     84  O         -3.4720   33.0190   30.6410 O.2   185  LEU185     -0.2867
     85  CB        -4.3830   33.2620   33.6020 C.3   185  LEU185      0.0270
     86  CG        -5.2750   32.7440   34.7280 C.3   185  LEU185      0.0019
     87  CD1       -6.0400   33.9260   35.3280 C.3   185  LEU185      0.0001
     88  CD2       -6.2310   31.6160   34.2740 C.3   185  LEU185      0.0001
     89  N         -7.9110   25.2630   30.5280 N.3   231  HIS231     -0.1226
     90  CA        -6.7500   25.4170   31.4090 C.3   231  HIS231      0.1752
     91  C         -5.9920   24.1290   31.7430 C.2   231  HIS231      0.2596
     92  O         -4.8250   23.9630   31.3860 O.2   231  HIS231     -0.2718
     93  CB        -7.1290   26.0730   32.7450 C.3   231  HIS231      0.0759
     94  CG        -8.0390   27.2560   32.6430 C.ar  231  HIS231      0.0818
     95  ND1       -7.5680   28.5460   32.5090 N.ar  231  HIS231     -0.2268
     96  CD2       -9.3860   27.3530   32.7300 C.ar  231  HIS231      0.1154
     97  CE1       -8.5900   29.3840   32.4910 C.ar  231  HIS231      0.1986
     98  NE2       -9.7040   28.6850   32.6230 N.ar  231  HIS231     -0.2212
     99  N         -6.6480   23.2190   32.4600 N.am  232  ASP232     -0.1974
    100  CA        -5.9350   22.0850   33.0640 C.3   232  ASP232      0.1709
    101  C         -5.2110   21.1470   32.0970 C.2   232  ASP232      0.2293
    102  O         -4.1200   20.7110   32.4270 O.2   232  ASP232     -0.2864
    103  CB        -6.8500   21.3100   34.0070 C.3   232  ASP232      0.1436
    104  CG        -7.3590   22.1710   35.1390 C.2   232  ASP232      0.3671
    105  OD1       -6.8280   23.2800   35.3450 O.co2 232  ASP232     -0.2456
    106  OD2       -8.2890   21.8250   35.8710 O.co2 232  ASP232     -0.2456
@<TRIPOS>BOND
     1    89    90    1
     2    84    83    2
     3    92    91    2
     4    90    91    1
     5    90    93    1
     6    83    82    1
     7    91    99   am
     8     5     2    1
     9     5     6    1
    10   101   102    2
    11   101   100    1
    12     2     1    1
    13     2     3    1
    14     4     3    2
    15    99   100    1
    16    97    95   ar
    17    97    98   ar
    18    95    94   ar
    19    98    96   ar
    20    94    96   ar
    21    94    93    1
    22    82    85    1
    23    82    81    1
    24     3     9   am
    25   100   103    1
    26     6     8   ar
    27     6     7   ar
    28    85    86    1
    29   103   104    1
    30    12    11    2
    31     9    10    1
    32    88    86    1
    33    11    10    1
    34    86    87    1
    35    10    13    1
    36    42    41    1
    37    42    43    1
    38   104   105   ar
    39   104   106   ar
    40    44    43    1
    41    41    38    1
    42    49    50    1
    43    49    46    1
    44    52    50   am
    45    13    14    1
    46    36    34    1
    47    38    37    1
    48    38    39    1
    49    50    51    2
    50    46    45    1
    51    46    47    1
    52    15    14   ar
    53    14    16   ar
    54    34    35    1
    55    34    31    1
    56    39    40    2
    57    48    47    2
    58    58    57    1
    59    58    59    1
    60    31    32    1
    61    31    30    1
    62    24    22   am
    63    33    32    2
    64    61    59   ar
    65    57    54    1
    66    59    60   ar
    67    23    22    2
    68    22    21    1
    69    80    78   am
    70    54    53    1
    71    54    55    1
    72    62    55   am
    73    62    63    1
    74    66    63    1
    75    66    67    1
    76    78    79    2
    77    78    77    1
    78    21    18    1
    79    29    26    1
    80    55    56    2
    81    69    67   ar
    82    69    71   ar
    83    63    64    1
    84    67    68   ar
    85    77    74    1
    86    73    64   am
    87    73    74    1
    88    27    26    1
    89    27    28    2
    90    26    25    1
    91    18    19    1
    92    18    17    1
    93    71    72   ar
    94    64    65    2
    95    68    70   ar
    96    20    19    2
    97    74    75    1
    98    72    70   ar
    99    75    76    2
