@<TRIPOS>MOLECULE
tmp/1yoiA00.pdb
 204 196 0 0 0
SMALL
GASTEIGER

@<TRIPOS>ATOM
      1  N         20.4490   16.8530    1.7920 N.3    32  LEU32      -0.1245
      2  CA        19.4550   17.4800    0.9090 C.3    32  LEU32       0.1561
      3  C         20.0990   17.8870   -0.4410 C.2    32  LEU32       0.2260
      4  O         19.5640   17.5830   -1.5150 O.2    32  LEU32      -0.2867
      5  CB        18.8840   18.7060    1.6060 C.3    32  LEU32       0.0270
      6  CG        17.9240   19.5650    0.7790 C.3    32  LEU32       0.0019
      7  CD1       16.6400   18.7330    0.4700 C.3    32  LEU32       0.0001
      8  CD2       17.6310   20.9160    1.4830 C.3    32  LEU32       0.0001
      9  N         17.8360   21.7240   -5.2490 N.3    39  THR39      -0.1218
     10  CA        17.6430   22.5580   -4.0550 C.3    39  THR39       0.1862
     11  C         18.8010   23.5290   -3.7580 C.2    39  THR39       0.2287
     12  O         18.5960   24.6040   -3.1780 O.2    39  THR39      -0.2866
     13  CB        17.3760   21.7050   -2.7830 C.3    39  THR39       0.1770
     14  OG1       18.5210   20.9180   -2.4190 O.3    39  THR39      -0.2211
     15  CG2       16.1730   20.8000   -3.0160 C.3    39  THR39       0.0375
     16  N         18.6390   27.1050   -5.0890 N.3    42  LYS42      -0.1231
     17  CA        17.8670   28.1550   -4.4550 C.3    42  LYS42       0.1693
     18  C         18.7020   29.0240   -3.4810 C.2    42  LYS42       0.2592
     19  O         18.2390   30.0450   -2.9570 O.2    42  LYS42      -0.2718
     20  CB        16.7290   27.5230   -3.6590 C.3    42  LYS42       0.0285
     21  CG        15.5750   27.0600   -4.5050 C.3    42  LYS42       0.0035
     22  CD        14.7770   28.2590   -5.1260 C.3    42  LYS42       0.0206
     23  CE        13.8100   27.7270   -6.1770 C.3    42  LYS42       0.1093
     24  NZ        12.8850   28.8050   -6.7050 N.3    42  LYS42      -0.1314
     25  N         19.9020   28.5750   -3.1560 N.am   43  PHE43      -0.1962
     26  CA        20.7450   29.2920   -2.2160 C.3    43  PHE43       0.1771
     27  C         21.8820   30.0190   -2.9350 C.2    43  PHE43       0.2620
     28  O         22.8970   29.3980   -3.2520 O.2    43  PHE43      -0.2715
     29  CB        21.3720   28.2930   -1.2180 C.3    43  PHE43       0.0574
     30  CG        20.3820   27.6520   -0.2580 C.ar   43  PHE43      -0.0200
     31  CD1       20.0910   28.2420    0.9680 C.ar   43  PHE43      -0.0042
     32  CD2       19.7690   26.4440   -0.5830 C.ar   43  PHE43      -0.0042
     33  CE1       19.2040   27.6380    1.8720 C.ar   43  PHE43      -0.0003
     34  CE2       18.8870   25.8450    0.3100 C.ar   43  PHE43      -0.0003
     35  CZ        18.6080   26.4380    1.5290 C.ar   43  PHE43      -0.0000
     36  N         21.7330   31.3120   -3.1920 N.am   44  ASP44      -0.1957
     37  CA        22.8310   32.0340   -3.8350 C.3    44  ASP44       0.1840
     38  C         24.0740   31.9480   -2.9470 C.2    44  ASP44       0.2621
     39  O         25.2040   31.9220   -3.4600 O.2    44  ASP44      -0.2715
     40  CB        22.5000   33.5250   -4.0290 C.3    44  ASP44       0.1450
     41  CG        21.6240   33.7830   -5.2600 C.2    44  ASP44       0.3671
     42  OD1       21.9410   33.2900   -6.3800 O.co2  44  ASP44      -0.2456
     43  OD2       20.5970   34.4920   -5.1000 O.co2  44  ASP44      -0.2456
     44  N         23.8680   31.8760   -1.6230 N.am   45  ARG45      -0.1977
     45  CA        25.0300   31.8460   -0.7320 C.3    45  ARG45       0.1597
     46  C         25.8020   30.5400   -0.6510 C.2    45  ARG45       0.2287
     47  O         26.9220   30.5260   -0.1610 O.2    45  ARG45      -0.2864
     48  CB        24.7190   32.4260    0.6670 C.3    45  ARG45       0.0334
     49  CG        24.1050   31.5560    1.6820 C.3    45  ARG45       0.0492
     50  CD        23.6630   32.5000    2.8930 C.3    45  ARG45       0.2205
     51  NE        24.2570   32.0830    4.1570 N.pl3  45  ARG45      -0.0865
     52  CZ        23.6650   32.1070    5.3520 C.cat  45  ARG45       0.5346
     53  NH1       22.4070   32.5370    5.4720 N.pl3  45  ARG45       0.1354
     54  NH2       24.3500   31.6750    6.4350 N.pl3  45  ARG45       0.1354
     55  N         24.0810   28.1880    8.9060 N.3    64  HIS64      -0.1241
     56  CA        22.7280   28.1380    8.3680 C.3    64  HIS64       0.1621
     57  C         21.9780   26.8800    8.9120 C.2    64  HIS64       0.2264
     58  O         20.7400   26.9350    9.1090 O.2    64  HIS64      -0.2867
     59  CB        22.6860   28.1740    6.8400 C.3    64  HIS64       0.0745
     60  CG        21.2770   28.2920    6.3190 C.ar   64  HIS64       0.0817
     61  ND1       20.4670   29.3600    6.6400 N.ar   64  HIS64      -0.2268
     62  CD2       20.4940   27.4280    5.6280 C.ar   64  HIS64       0.1154
     63  CE1       19.2500   29.1510    6.1760 C.ar   64  HIS64       0.1986
     64  NE2       19.2350   27.9860    5.5600 N.ar   64  HIS64      -0.2212
     65  N         20.5490   27.7370   12.0970 N.3    67  THR67      -0.1203
     66  CA        19.3640   28.5690   11.8720 C.3    67  THR67       0.1994
     67  C         18.1280   27.7410   11.6020 C.2    67  THR67       0.2617
     68  O         17.0820   27.9320   12.2460 O.2    67  THR67      -0.2717
     69  CB        19.5590   29.5530   10.6990 C.3    67  THR67       0.1784
     70  OG1       20.5270   30.5230   11.1120 O.3    67  THR67      -0.2211
     71  CG2       18.2090   30.2950   10.3210 C.3    67  THR67       0.0376
     72  N         18.2650   26.8010   10.6790 N.am   68  VAL68      -0.1979
     73  CA        17.1290   25.9590   10.2950 C.3    68  VAL68       0.1595
     74  C         16.6190   25.0810   11.4390 C.2    68  VAL68       0.2287
     75  O         15.4240   25.0580   11.7740 O.2    68  VAL68      -0.2864
     76  CB        17.5140   25.0600    9.0900 C.3    68  VAL68       0.0276
     77  CG1       16.3370   24.0490    8.8270 C.3    68  VAL68       0.0022
     78  CG2       17.7900   25.9240    7.8540 C.3    68  VAL68       0.0022
     79  N         14.8690   27.0230   14.3230 N.3    71  ALA71      -0.1231
     80  CA        13.4820   27.4150   13.9380 C.3    71  ALA71       0.1694
     81  C         12.5840   26.1620   14.0020 C.2    71  ALA71       0.2591
     82  O         11.4670   26.1940   14.5450 O.2    71  ALA71      -0.2718
     83  CB        13.4450   28.0030   12.5320 C.3    71  ALA71       0.0304
     84  N         13.0520   25.0600   13.4540 N.am   72  LEU72      -0.1980
     85  CA        12.2380   23.8530   13.4920 C.3    72  LEU72       0.1596
     86  C         11.9900   23.4040   14.9350 C.2    72  LEU72       0.2287
     87  O         10.8610   23.0120   15.3020 O.2    72  LEU72      -0.2864
     88  CB        12.8650   22.7470   12.6170 C.3    72  LEU72       0.0297
     89  CG        12.0300   21.4650   12.4320 C.3    72  LEU72       0.0022
     90  CD1       10.5960   21.7780   11.8510 C.3    72  LEU72       0.0001
     91  CD2       12.7660   20.4640   11.5540 C.3    72  LEU72       0.0001
     92  N          5.4710   33.5230    9.5850 N.3    88  PRO88      -0.2102
     93  CA         6.5870   34.2980    9.0100 C.3    88  PRO88       0.1504
     94  C          7.4280   33.4130    8.1110 C.2    88  PRO88       0.2575
     95  O          7.9650   33.8220    7.0770 O.2    88  PRO88      -0.2718
     96  CB         7.3840   34.6760   10.2430 C.3    88  PRO88       0.0282
     97  CG         6.3650   34.7330   11.2930 C.3    88  PRO88       0.0208
     98  CD         5.5160   33.5610   11.0500 C.3    88  PRO88       0.0893
     99  N          7.5620   32.1780    8.5540 N.am   89  LEU89      -0.1980
    100  CA         8.3130   31.1820    7.8080 C.3    89  LEU89       0.1596
    101  C          7.6670   30.8880    6.4160 C.2    89  LEU89       0.2287
    102  O          8.3340   30.8480    5.3870 O.2    89  LEU89      -0.2864
    103  CB         8.3650   29.9330    8.6690 C.3    89  LEU89       0.0297
    104  CG         9.4770   29.0070    8.3240 C.3    89  LEU89       0.0022
    105  CD1        9.5580   27.9520    9.4320 C.3    89  LEU89       0.0001
    106  CD2        9.1780   28.3420    6.9820 C.3    89  LEU89       0.0001
    107  N          8.0560   34.0040    4.0450 N.3    92  SER92      -0.1202
    108  CA         9.3420   34.2230    3.4680 C.3    92  SER92       0.2020
    109  C          9.6510   33.0980    2.4660 C.2    92  SER92       0.2618
    110  O         10.1420   33.3570    1.3450 O.2    92  SER92      -0.2717
    111  CB        10.4100   34.3110    4.5450 C.3    92  SER92       0.2103
    112  OG        10.6430   33.0350    5.1190 O.3    92  SER92      -0.2182
    113  N          9.3700   31.8520    2.8460 N.am   93  HIS93      -0.1975
    114  CA         9.6840   30.7880    1.9080 C.3    93  HIS93       0.1656
    115  C          8.8300   30.7750    0.6300 C.2    93  HIS93       0.2291
    116  O          9.2960   30.3880   -0.4580 O.2    93  HIS93      -0.2864
    117  CB         9.7530   29.4490    2.6180 C.3    93  HIS93       0.0771
    118  CG        10.9790   29.3140    3.4860 C.ar   93  HIS93       0.0820
    119  ND1       11.2170   30.1440    4.5550 N.ar   93  HIS93      -0.2267
    120  CD2       12.0350   28.4600    3.4340 C.ar   93  HIS93       0.1154
    121  CE1       12.3690   29.8190    5.1220 C.ar   93  HIS93       0.1986
    122  NE2       12.8800   28.8070    4.4540 N.ar   93  HIS93      -0.2212
    123  N          9.6180   35.1400   -0.8180 N.3    96  LYS96      -0.1231
    124  CA        10.9770   35.6350   -0.9560 C.3    96  LYS96       0.1693
    125  C         11.9320   34.5900   -1.4980 C.2    96  LYS96       0.2592
    126  O         12.6400   34.8440   -2.4610 O.2    96  LYS96      -0.2718
    127  CB        11.5200   36.1640    0.3730 C.3    96  LYS96       0.0285
    128  CG        12.9260   36.7610    0.2130 C.3    96  LYS96       0.0035
    129  CD        12.9240   38.2810    0.4660 C.3    96  LYS96       0.0206
    130  CE        13.7030   38.5840    1.7230 C.3    96  LYS96       0.1093
    131  NZ        13.3600   37.5550    2.7890 N.3    96  LYS96      -0.1314
    132  N         11.9450   33.4080   -0.9010 N.am   97  HIS97      -0.1976
    133  CA        12.8630   32.3710   -1.3450 C.3    97  HIS97       0.1656
    134  C         12.3230   31.5440   -2.4740 C.2    97  HIS97       0.2291
    135  O         13.0970   30.9420   -3.2140 O.2    97  HIS97      -0.2864
    136  CB        13.2830   31.4960   -0.1540 C.3    97  HIS97       0.0771
    137  CG        13.7830   32.3030    1.0180 C.ar   97  HIS97       0.0820
    138  ND1       14.6620   33.3610    0.8650 N.ar   97  HIS97      -0.2267
    139  CD2       13.3870   32.3330    2.3190 C.ar   97  HIS97       0.1154
    140  CE1       14.7660   34.0150    2.0090 C.ar   97  HIS97       0.1986
    141  NE2       14.0060   33.4100    2.9050 N.ar   97  HIS97      -0.2212
    142  N         10.3100   28.7420   -2.4720 N.3    99  ILE99      -0.1245
    143  CA        10.5840   27.3400   -2.2090 C.3    99  ILE99       0.1561
    144  C          9.3270   26.5370   -2.4220 C.2    99  ILE99       0.2260
    145  O          8.3480   26.7320   -1.6820 O.2    99  ILE99      -0.2867
    146  CB        11.0460   27.1410   -0.7290 C.3    99  ILE99       0.0252
    147  CG1       12.3120   27.9950   -0.4670 C.3    99  ILE99       0.0019
    148  CG2       11.3030   25.6490   -0.4160 C.3    99  ILE99       0.0019
    149  CD1       13.4300   27.7910   -1.5670 C.3    99  ILE99       0.0001
    150  N          9.9790   20.7390   -1.9840 N.3   103  TYR103     -0.1227
    151  CA        11.3110   20.8430   -1.3660 C.3   103  TYR103      0.1736
    152  C         11.2010   20.6420    0.1630 C.2   103  TYR103      0.2595
    153  O         12.1520   20.1840    0.8060 O.2   103  TYR103     -0.2718
    154  CB        11.9640   22.1990   -1.7090 C.3   103  TYR103      0.0548
    155  CG        12.4500   22.3430   -3.1520 C.ar  103  TYR103     -0.0200
    156  CD1       12.0460   21.4610   -4.1440 C.ar  103  TYR103     -0.0009
    157  CD2       13.2990   23.3910   -3.5130 C.ar  103  TYR103     -0.0009
    158  CE1       12.4650   21.6140   -5.4740 C.ar  103  TYR103      0.0417
    159  CE2       13.7160   23.5540   -4.8320 C.ar  103  TYR103      0.0417
    160  CZ        13.2890   22.6630   -5.8030 C.ar  103  TYR103      0.1957
    161  OH        13.6620   22.8610   -7.1360 O.3   103  TYR103     -0.2866
    162  N         10.0620   21.0310    0.7580 N.am  104  LEU104     -0.1980
    163  CA         9.8840   20.8220    2.1750 C.3   104  LEU104      0.1596
    164  C          9.7260   19.3060    2.4280 C.2   104  LEU104      0.2287
    165  O         10.1350   18.8090    3.4700 O.2   104  LEU104     -0.2864
    166  CB         8.6860   21.6190    2.7080 C.3   104  LEU104      0.0297
    167  CG         8.7120   23.1320    2.4060 C.3   104  LEU104      0.0022
    168  CD1        7.4140   23.7690    2.8590 C.3   104  LEU104      0.0001
    169  CD2        9.8650   23.8560    3.0900 C.3   104  LEU104      0.0001
    170  N         13.4300   18.0100    2.3960 N.3   107  ILE107     -0.1245
    171  CA        14.2110   18.2240    3.6250 C.3   107  ILE107      0.1561
    172  C         13.6730   17.3640    4.7820 C.2   107  ILE107      0.2260
    173  O         14.4480   16.9190    5.6420 O.2   107  ILE107     -0.2867
    174  CB        14.3140   19.7450    4.0360 C.3   107  ILE107      0.0252
    175  CG1       15.5160   19.9310    5.0020 C.3   107  ILE107      0.0019
    176  CG2       12.9560   20.2890    4.6420 C.3   107  ILE107      0.0019
    177  CD1       15.9110   21.4110    5.1640 C.3   107  ILE107      0.0001
    178  N         15.9330   14.9640    7.1450 N.3   111  ILE111     -0.1245
    179  CA        15.9120   15.0070    8.5830 C.3   111  ILE111      0.1561
    180  C         15.7290   13.5990    9.1390 C.2   111  ILE111      0.2260
    181  O         16.4790   13.1550   10.0180 O.2   111  ILE111     -0.2867
    182  CB        14.7730   15.9200    9.0470 C.3   111  ILE111      0.0252
    183  CG1       15.1240   17.3770    8.7150 C.3   111  ILE111      0.0019
    184  CG2       14.4900   15.7140   10.5400 C.3   111  ILE111      0.0019
    185  CD1       14.0180   18.3610    9.0520 C.3   111  ILE111      0.0001
    186  N          6.3210   16.1610   10.9310 N.3   135  LEU135     -0.1245
    187  CA         6.8120   16.8720    9.7460 C.3   135  LEU135      0.1561
    188  C          5.6430   17.0770    8.7190 C.2   135  LEU135      0.2260
    189  O          5.6180   18.0700    7.9870 O.2   135  LEU135     -0.2867
    190  CB         8.0160   16.1240    9.1470 C.3   135  LEU135      0.0270
    191  CG         9.2400   16.1800   10.1050 C.3   135  LEU135      0.0019
    192  CD1       10.4410   15.4010    9.5350 C.3   135  LEU135      0.0001
    193  CD2        9.6070   17.6390   10.3570 C.3   135  LEU135      0.0001
    194  N          3.6170   19.8960    9.8670 N.3   138  PHE138     -0.1241
    195  CA         4.3530   21.1140    9.5310 C.3   138  PHE138      0.1605
    196  C          4.0850   21.5200    8.0910 C.2   138  PHE138      0.2264
    197  O          3.7150   22.6740    7.8180 O.2   138  PHE138     -0.2867
    198  CB         5.8600   20.8120    9.7650 C.3   138  PHE138      0.0534
    199  CG         6.8190   21.8340    9.1850 C.ar  138  PHE138     -0.0203
    200  CD1        6.9850   23.0980    9.7760 C.ar  138  PHE138     -0.0042
    201  CD2        7.5740   21.5240    8.0810 C.ar  138  PHE138     -0.0042
    202  CE1        7.9350   24.0570    9.2330 C.ar  138  PHE138     -0.0003
    203  CE2        8.4930   22.4460    7.5430 C.ar  138  PHE138     -0.0003
    204  CZ         8.6640   23.7130    8.1320 C.ar  138  PHE138     -0.0000
@<TRIPOS>BOND
     1   161   160    1
     2    24    23    1
     3    42    41   ar
     4    23    22    1
     5   160   158   ar
     6   160   159   ar
     7   158   156   ar
     8    41    43   ar
     9    41    40    1
    10     9    10    1
    11    22    21    1
    12    16    17    1
    13   159   157   ar
    14    21    20    1
    15    17    20    1
    16    17    18    1
    17   156   155   ar
    18    10    11    1
    19    10    13    1
    20    40    37    1
    21    37    36    1
    22    37    38    1
    23    11    12    2
    24   157   155   ar
    25    18    25   am
    26    18    19    2
    27    39    38    2
    28    28    27    2
    29   135   134    2
    30    36    27   am
    31    25    26    1
    32   155   154    1
    33    15    13    1
    34    38    44   am
    35    27    26    1
    36    13    14    1
    37   134   133    1
    38   142   143    1
    39   126   125    2
    40   144   143    1
    41   144   145    2
    42    26    29    1
    43   143   146    1
    44   150   151    1
    45   154   151    1
    46    44    45    1
    47   149   147    1
    48     4     3    2
    49   125   124    1
    50   125   132   am
    51   151   152    1
    52   133   132    1
    53   133   136    1
    54    29    30    1
    55   124   123    1
    56   124   127    1
    57    45    46    1
    58    45    48    1
    59   146   147    1
    60   146   148    1
    61    46    47    2
    62    32    30   ar
    63    32    34   ar
    64   116   115    2
    65     3     2    1
    66    30    31   ar
    67   136   137    1
    68   152   162   am
    69   152   153    2
    70   128   127    1
    71   128   129    1
    72    34    35   ar
    73   129   130    1
    74     7     6    1
    75   115   114    1
    76    48    49    1
    77   162   163    1
    78     6     8    1
    79     6     5    1
    80   138   137   ar
    81   138   140   ar
    82     2     5    1
    83     2     1    1
    84    31    33   ar
    85   137   139   ar
    86   110   109    2
    87    35    33   ar
    88    49    50    1
    89   130   131    1
    90   114   117    1
    91   114   113    1
    92   140   141   ar
    93   163   164    1
    94   163   166    1
    95   139   141   ar
    96   170   171    1
    97   167   166    1
    98   167   168    1
    99   167   169    1
   100   164   165    2
   101   109   113   am
   102   109   108    1
   103   117   118    1
   104    50    51    1
   105   120   118   ar
   106   120   122   ar
   107   108   107    1
   108   108   111    1
   109   118   119   ar
   110   171   174    1
   111   171   172    1
   112   174   176    1
   113   174   175    1
   114    51    52    2
   115   122   121   ar
   116   111   112    1
   117   119   121   ar
   118   172   173    2
   119   175   177    1
   120    52    53    1
   121    52    54    1
   122   102   101    2
   123    64    62   ar
   124    64    63   ar
   125    62    60   ar
   126    63    61   ar
   127    60    61   ar
   128    60    59    1
   129   101   100    1
   130    59    56    1
   131   106   104    1
   132    95    94    2
   133   178   179    1
   134   203   201   ar
   135   203   204   ar
   136   100    99    1
   137   100   103    1
   138   197   196    2
   139    78    76    1
   140   189   188    2
   141   201   199   ar
   142   196   195    1
   143    94    99   am
   144    94    93    1
   145   204   202   ar
   146   104   103    1
   147   104   105    1
   148    56    55    1
   149    56    57    1
   150   179   182    1
   151   179   180    1
   152   183   182    1
   153   183   185    1
   154   188   187    1
   155    77    76    1
   156    57    58    2
   157    93    92    1
   158    93    96    1
   159   182   184    1
   160    76    73    1
   161   180   181    2
   162   190   187    1
   163   190   191    1
   164   199   198    1
   165   199   200   ar
   166   202   200   ar
   167   195   198    1
   168   195   194    1
   169   192   191    1
   170    92    98    1
   171   187   186    1
   172   191   193    1
   173    96    97    1
   174    73    72    1
   175    73    74    1
   176    71    69    1
   177    72    67   am
   178    69    70    1
   179    69    66    1
   180    98    97    1
   181    74    75    2
   182    91    89    1
   183    67    66    1
   184    67    68    2
   185    90    89    1
   186    66    65    1
   187    89    88    1
   188    83    80    1
   189    88    85    1
   190    84    85    1
   191    84    81   am
   192    85    86    1
   193    80    81    1
   194    80    79    1
   195    81    82    2
   196    86    87    2
