@<TRIPOS>MOLECULE
tmp/1yolA00.pdb
 165 154 0 0 0
SMALL
GASTEIGER

@<TRIPOS>ATOM
      1  N         -0.2570   17.7000   32.6420 N.3    18  LEU18      -0.1231
      2  CA        -0.2580   18.3670   31.3320 C.3    18  LEU18       0.1693
      3  C          0.9090   17.9570   30.4300 C.2    18  LEU18       0.2593
      4  O          0.7510   17.9020   29.2110 O.2    18  LEU18      -0.2718
      5  CB        -0.2450   19.8920   31.5050 C.3    18  LEU18       0.0284
      6  CG        -1.4010   20.5150   32.2900 C.3    18  LEU18       0.0019
      7  CD1       -1.1340   21.9850   32.5480 C.3    18  LEU18       0.0001
      8  CD2       -2.7300   20.3350   31.5780 C.3    18  LEU18       0.0001
      9  N          2.0750   17.6930   31.0170 N.am   19  GLY19      -0.1942
     10  CA         3.2770   17.4090   30.2350 C.3    19  GLY19       0.2014
     11  C          4.4680   16.9690   31.0670 C.2    19  GLY19       0.2638
     12  O          4.4140   16.9730   32.3000 O.2    19  GLY19      -0.2714
     13  N          5.5460   16.5930   30.3790 N.am   20  GLN20      -0.1977
     14  CA         6.7510   16.0600   31.0150 C.3    20  GLN20       0.1601
     15  C          7.9720   16.2930   30.1310 C.2    20  GLN20       0.2287
     16  O          7.8320   16.4990   28.9190 O.2    20  GLN20      -0.2864
     17  CB         6.6190   14.5300   31.2920 C.3    20  GLN20       0.0394
     18  CG         6.8410   13.6470   30.0740 C.3    20  GLN20       0.0908
     19  CD         6.5160   12.1790   30.3430 C.2    20  GLN20       0.2608
     20  OE1        5.8050   11.8590   31.3100 O.2    20  GLN20      -0.2717
     21  NE2        7.0390   11.2810   29.4980 N.am   20  GLN20      -0.0878
     22  N          4.7260   19.1760   34.3890 N.3    24  VAL24      -0.1245
     23  CA         3.8710   20.3470   34.5520 C.3    24  VAL24       0.1561
     24  C          2.4410   19.8720   34.7810 C.2    24  VAL24       0.2260
     25  O          1.9460   19.0250   34.0340 O.2    24  VAL24      -0.2867
     26  CB         3.8680   21.2590   33.3010 C.3    24  VAL24       0.0252
     27  CG1        2.8750   22.4180   33.4710 C.3    24  VAL24       0.0019
     28  CG2        5.2510   21.7970   33.0230 C.3    24  VAL24       0.0019
     29  N         -0.8340   26.6580   37.0410 N.3    36  ALA36      -0.1231
     30  CA         0.0170   25.6240   36.4910 C.3    36  ALA36       0.1694
     31  C          1.1670   25.4460   37.4640 C.2    36  ALA36       0.2592
     32  O          1.5760   26.4060   38.1250 O.2    36  ALA36      -0.2718
     33  CB         0.5270   26.0170   35.1220 C.3    36  ALA36       0.0304
     34  N          1.6630   24.2150   37.5750 N.am   37  ILE37      -0.1966
     35  CA         2.7440   23.8920   38.5080 C.3    37  ILE37       0.1727
     36  C          3.8270   23.0900   37.7960 C.2    37  ILE37       0.2616
     37  O          3.5480   22.0340   37.2550 O.2    37  ILE37      -0.2715
     38  CB         2.2240   23.0760   39.7320 C.3    37  ILE37       0.0290
     39  CG1        0.9410   23.7050   40.2930 C.3    37  ILE37       0.0022
     40  CG2        3.3090   22.9730   40.8110 C.3    37  ILE37       0.0023
     41  CD1        0.2130   22.8590   41.2990 C.3    37  ILE37       0.0001
     42  N          5.0550   23.6040   37.8000 N.am   38  LYS38      -0.1977
     43  CA         6.2090   22.8950   37.2580 C.3    38  LYS38       0.1596
     44  C          6.8370   22.1460   38.4010 C.2    38  LYS38       0.2287
     45  O          7.0060   22.6980   39.4830 O.2    38  LYS38      -0.2864
     46  CB         7.2670   23.8330   36.6600 C.3    38  LYS38       0.0298
     47  CG         7.0060   24.2040   35.2140 C.3    38  LYS38       0.0038
     48  CD         8.3400   24.1790   34.4800 C.3    38  LYS38       0.0206
     49  CE         8.5690   22.8420   33.8110 C.3    38  LYS38       0.1093
     50  NZ         8.6920   21.6570   34.7110 N.3    38  LYS38      -0.1314
     51  N         14.6840   29.6530   36.1940 N.3    53  GLU53      -0.1245
     52  CA        13.4340   30.0470   35.5370 C.3    53  GLU53       0.1567
     53  C         12.5430   30.9250   36.4170 C.2    53  GLU53       0.2260
     54  O         11.9640   31.8950   35.9420 O.2    53  GLU53      -0.2867
     55  CB        12.6550   28.7900   35.1070 C.3    53  GLU53       0.0388
     56  CG        11.4860   29.0610   34.1580 C.3    53  GLU53       0.1160
     57  CD        10.6740   27.8130   33.8190 C.2    53  GLU53       0.3649
     58  OE1       11.1990   26.6930   33.9780 O.co2  53  GLU53      -0.2457
     59  OE2        9.5110   27.9590   33.3840 O.co2  53  GLU53      -0.2457
     60  N         11.6560   34.8710   36.2450 N.3    57  MET57      -0.1245
     61  CA        10.2200   35.1280   36.1940 C.3    57  MET57       0.1570
     62  C          9.7820   36.1100   37.2770 C.2    57  MET57       0.2261
     63  O          8.7750   36.7960   37.1040 O.2    57  MET57      -0.2867
     64  CB         9.4150   33.8310   36.3220 C.3    57  MET57       0.0387
     65  CG         9.2530   33.0760   35.0070 C.3    57  MET57       0.0595
     66  SD         8.1910   31.6350   35.1270 S.3    57  MET57      -0.1393
     67  CE         6.6010   32.3950   34.8580 C.3    57  MET57       0.0692
     68  N          4.1750   34.7480   30.6800 N.3    66  VAL66      -0.1245
     69  CA         3.4090   33.9430   31.6170 C.3    66  VAL66       0.1561
     70  C          3.7770   34.4380   33.0090 C.2    66  VAL66       0.2260
     71  O          4.9610   34.6200   33.3040 O.2    66  VAL66      -0.2867
     72  CB         3.7100   32.4340   31.4980 C.3    66  VAL66       0.0252
     73  CG1        2.7910   31.6530   32.4000 C.3    66  VAL66       0.0019
     74  CG2        3.5240   31.9720   30.0530 C.3    66  VAL66       0.0019
     75  N          7.3770   25.4400   40.8900 N.3    79  ILE79      -0.1245
     76  CA         7.1330   26.7870   40.3740 C.3    79  ILE79       0.1561
     77  C          5.6460   26.8940   40.0240 C.2    79  ILE79       0.2260
     78  O          5.0640   25.9550   39.4860 O.2    79  ILE79      -0.2867
     79  CB         8.0180   27.0900   39.1570 C.3    79  ILE79       0.0252
     80  CG1        9.4900   26.8580   39.5240 C.3    79  ILE79       0.0019
     81  CG2        7.8250   28.5330   38.6930 C.3    79  ILE79       0.0019
     82  CD1       10.4960   27.1460   38.4040 C.3    79  ILE79       0.0001
     83  N          2.4340   29.3660   38.3390 N.3    81  THR81      -0.1203
     84  CA         2.1520   30.4310   37.3840 C.3    81  THR81       0.1994
     85  C          0.6800   30.4110   37.0240 C.2    81  THR81       0.2618
     86  O         -0.0220   29.4430   37.3230 O.2    81  THR81      -0.2717
     87  CB         2.9520   30.2440   36.0510 C.3    81  THR81       0.1784
     88  OG1        2.3740   29.1960   35.2630 O.3    81  THR81      -0.2211
     89  CG2        4.3990   29.9150   36.3060 C.3    81  THR81       0.0376
     90  N          0.2230   31.4520   36.3310 N.am   82  GLU82      -0.1965
     91  CA        -1.1060   31.4200   35.7340 C.3    82  GLU82       0.1733
     92  C         -1.2330   30.2120   34.8250 C.2    82  GLU82       0.2616
     93  O         -0.2310   29.6800   34.3280 O.2    82  GLU82      -0.2715
     94  CB        -1.3960   32.6870   34.9350 C.3    82  GLU82       0.0429
     95  CG        -0.5370   32.8440   33.7050 C.3    82  GLU82       0.1163
     96  CD        -0.8260   34.0960   32.9370 C.2    82  GLU82       0.3649
     97  OE1        0.1100   34.9040   32.7660 O.co2  82  GLU82      -0.2457
     98  OE2       -1.9770   34.2680   32.4900 O.co2  82  GLU82      -0.2457
     99  N         -2.4750   29.8030   34.6000 N.am   83  TYR83      -0.1960
    100  CA        -2.8020   28.6500   33.7900 C.3    83  TYR83       0.1771
    101  C         -3.2130   29.1140   32.4040 C.2    83  TYR83       0.2619
    102  O         -4.1130   29.9630   32.2450 O.2    83  TYR83      -0.2715
    103  CB        -3.9420   27.8550   34.4420 C.3    83  TYR83       0.0574
    104  CG        -4.4150   26.7000   33.5980 C.ar   83  TYR83      -0.0198
    105  CD1       -3.5430   25.6760   33.2630 C.ar   83  TYR83      -0.0009
    106  CD2       -5.7220   26.6430   33.1180 C.ar   83  TYR83      -0.0009
    107  CE1       -3.9440   24.6280   32.4810 C.ar   83  TYR83       0.0417
    108  CE2       -6.1410   25.5770   32.3240 C.ar   83  TYR83       0.0417
    109  CZ        -5.2390   24.5750   32.0150 C.ar   83  TYR83       0.1957
    110  OH        -5.6060   23.5040   31.2330 O.3    83  TYR83      -0.2866
    111  N         -2.5460   28.5530   31.3970 N.am   84  MET84      -0.1977
    112  CA        -2.7980   28.8990   30.0080 C.3    84  MET84       0.1605
    113  C         -3.6040   27.7720   29.3700 C.2    84  MET84       0.2287
    114  O         -3.0600   26.7330   28.9630 O.2    84  MET84      -0.2864
    115  CB        -1.4770   29.1500   29.2820 C.3    84  MET84       0.0413
    116  CG        -0.6320   30.2400   29.9350 C.3    84  MET84       0.0598
    117  SD        -1.4410   31.8630   30.1080 S.3    84  MET84      -0.1393
    118  CE        -1.6840   32.3320   28.4200 C.3    84  MET84       0.0692
    119  N         -2.7500   25.6650   26.1400 N.3    87  GLY87      -0.1210
    120  CA        -1.4610   24.9620   26.0590 C.3    87  GLY87       0.1956
    121  C         -0.4540   25.6430   25.1410 C.2    87  GLY87       0.2612
    122  O         -0.4630   26.8620   25.0050 O.2    87  GLY87      -0.2717
    123  N          0.3810   24.8570   24.4670 N.am   88  SER88      -0.1952
    124  CA         1.5060   25.4170   23.7210 C.3    88  SER88       0.1924
    125  C          1.0270   25.8830   22.3700 C.2    88  SER88       0.2314
    126  O          0.1170   25.3010   21.7920 O.2    88  SER88      -0.2863
    127  CB         2.6800   24.4370   23.6040 C.3    88  SER88       0.2116
    128  OG         2.7460   23.7530   22.3600 O.3    88  SER88      -0.2180
    129  N          2.6810   25.6630   19.6300 N.3    90  LEU90      -0.1231
    130  CA         2.9990   24.6340   18.6430 C.3    90  LEU90       0.1693
    131  C          1.8770   23.5930   18.5190 C.2    90  LEU90       0.2592
    132  O          1.4450   23.2560   17.4140 O.2    90  LEU90      -0.2718
    133  CB         4.3130   23.9410   19.0020 C.3    90  LEU90       0.0284
    134  CG         4.7300   22.8280   18.0600 C.3    90  LEU90       0.0019
    135  CD1        4.8220   23.3310   16.6680 C.3    90  LEU90       0.0001
    136  CD2        6.0610   22.2670   18.5290 C.3    90  LEU90       0.0001
    137  N          1.4280   23.0910   19.6590 N.am   91  ASP91      -0.1974
    138  CA         0.3000   22.1390   19.7050 C.3    91  ASP91       0.1709
    139  C         -1.0000   22.7540   19.1720 C.2    91  ASP91       0.2293
    140  O         -1.7610   22.0880   18.4970 O.2    91  ASP91      -0.2864
    141  CB         0.0660   21.6590   21.1290 C.3    91  ASP91       0.1436
    142  CG         1.2310   20.8720   21.6840 C.2    91  ASP91       0.3671
    143  OD1        2.2590   20.6830   20.9980 O.co2  91  ASP91      -0.2456
    144  OD2        1.1180   20.4390   22.8330 O.co2  91  ASP91      -0.2456
    145  N          2.7800   30.1330   25.0820 N.3   136  LEU136     -0.1245
    146  CA         1.5710   29.5480   25.6550 C.3   136  LEU136      0.1561
    147  C          0.3900   30.3340   25.1950 C.2   136  LEU136      0.2260
    148  O          0.4670   31.5620   25.0030 O.2   136  LEU136     -0.2867
    149  CB         1.6010   29.5060   27.1790 C.3   136  LEU136      0.0270
    150  CG         2.5680   28.5330   27.8300 C.3   136  LEU136      0.0019
    151  CD1        2.3740   28.5750   29.3270 C.3   136  LEU136      0.0001
    152  CD2        2.3630   27.0950   27.3440 C.3   136  LEU136      0.0001
    153  N          6.9650   32.0250   27.4900 N.3   146  ALA146     -0.1231
    154  CA         7.2460   31.1890   28.6690 C.3   146  ALA146      0.1694
    155  C          8.6200   30.5390   28.5930 C.2   146  ALA146      0.2592
    156  O          9.3610   30.7560   27.6490 O.2   146  ALA146     -0.2718
    157  CB         6.2030   30.1000   28.7650 C.3   146  ALA146      0.0304
    158  N          8.9260   29.7000   29.5860 N.am  147  ASP147     -0.1974
    159  CA        10.0810   28.7840   29.5580 C.3   147  ASP147      0.1709
    160  C         11.4310   29.4950   29.4310 C.2   147  ASP147      0.2293
    161  O         12.1470   29.2980   28.4280 O.2   147  ASP147     -0.2864
    162  CB         9.9320   27.7750   28.4140 C.3   147  ASP147      0.1436
    163  CG         8.7570   26.8180   28.6150 C.2   147  ASP147      0.3671
    164  OD1        8.6850   26.1870   29.6840 O.co2 147  ASP147     -0.2456
    165  OD2        7.9200   26.6800   27.6940 O.co2 147  ASP147     -0.2456
@<TRIPOS>BOND
     1   135   134    1
     2   132   131    2
     3   134   136    1
     4   134   133    1
     5   140   139    2
     6   131   130    1
     7   131   137   am
     8   130   133    1
     9   130   129    1
    10   139   138    1
    11   137   138    1
    12   138   141    1
    13   143   142   ar
    14   141   142    1
    15   142   144   ar
    16   126   125    2
    17   128   127    1
    18   125   124    1
    19   127   124    1
    20   124   123    1
    21   123   121   am
    22   148   147    2
    23   122   121    2
    24   145   146    1
    25   121   120    1
    26   147   146    1
    27   146   149    1
    28   120   119    1
    29   149   150    1
    30   152   150    1
    31   153   154    1
    32   156   155    2
    33   165   163   ar
    34   150   151    1
    35   162   163    1
    36   162   159    1
    37   118   117    1
    38   161   160    2
    39   155   154    1
    40   155   158   am
    41   163   164   ar
    42   154   157    1
    43    16    15    2
    44   114   113    2
    45     4     3    2
    46   115   116    1
    47   115   112    1
    48   113   112    1
    49   160   159    1
    50    21    19   am
    51   159   158    1
    52   116   117    1
    53   112   111    1
    54    74    72    1
    55    18    19    1
    56    18    17    1
    57    15    14    1
    58    10     9    1
    59    10    11    1
    60    19    20    2
    61    13    14    1
    62    13    11   am
    63     3     9   am
    64     3     2    1
    65    68    69    1
    66    14    17    1
    67    11    12    2
    68   110   109    1
    69     2     5    1
    70     2     1    1
    71   111   101   am
    72    72    69    1
    73    72    73    1
    74     5     6    1
    75     8     6    1
    76    69    70    1
    77   109   108   ar
    78   109   107   ar
    79   102   101    2
    80     6     7    1
    81   108   106   ar
    82   101   100    1
    83   107   105   ar
    84    98    96   ar
    85    97    96   ar
    86    96    95    1
    87    70    71    2
    88    28    26    1
    89   106   104   ar
    90   105   104   ar
    91    26    27    1
    92    26    23    1
    93    59    57   ar
    94   104   103    1
    95    95    94    1
    96   100   103    1
    97   100    99    1
    98    49    48    1
    99    49    50    1
   100    57    58   ar
   101    57    56    1
   102    25    24    2
   103    56    55    1
   104    93    92    2
   105    22    23    1
   106    48    47    1
   107    23    24    1
   108    99    92   am
   109    92    91    1
   110    67    66    1
   111    94    91    1
   112    65    66    1
   113    65    64    1
   114    55    52    1
   115    33    30    1
   116    47    46    1
   117    88    87    1
   118    52    51    1
   119    52    53    1
   120    91    90    1
   121    54    53    2
   122    87    89    1
   123    87    84    1
   124    61    60    1
   125    61    64    1
   126    61    62    1
   127    90    85   am
   128    30    29    1
   129    30    31    1
   130    46    43    1
   131    85    86    2
   132    85    84    1
   133    63    62    2
   134    37    36    2
   135    43    42    1
   136    43    44    1
   137    84    83    1
   138    31    34   am
   139    31    32    2
   140    34    35    1
   141    36    42   am
   142    36    35    1
   143    44    45    2
   144    82    80    1
   145    35    38    1
   146    81    79    1
   147    79    80    1
   148    79    76    1
   149    78    77    2
   150    38    39    1
   151    38    40    1
   152    77    76    1
   153    39    41    1
   154    76    75    1
