@<TRIPOS>MOLECULE
tmp/1yomA00.pdb
 154 144 0 0 0
SMALL
GASTEIGER

@<TRIPOS>ATOM
      1  N          9.0040  -13.9720   -8.0130 N.3    19  LEU19      -0.1231
      2  CA         8.8220  -13.3810   -6.6990 C.3    19  LEU19       0.1693
      3  C          7.7670  -14.1490   -5.9260 C.2    19  LEU19       0.2593
      4  O          8.0490  -14.7480   -4.8890 O.2    19  LEU19      -0.2718
      5  CB         8.4130  -11.9160   -6.8340 C.3    19  LEU19       0.0284
      6  CG         9.4400  -11.0130   -7.4910 C.3    19  LEU19       0.0019
      7  CD1        8.8660   -9.6360   -7.6140 C.3    19  LEU19       0.0001
      8  CD2       10.7430  -10.9950   -6.7000 C.3    19  LEU19       0.0001
      9  N          6.5490  -14.1080   -6.4460 N.am   20  GLY20      -0.1942
     10  CA         5.4380  -14.8380   -5.8840 C.3    20  GLY20       0.2014
     11  C          4.3780  -15.1180   -6.9280 C.2    20  GLY20       0.2638
     12  O          4.5840  -14.9480   -8.1290 O.2    20  GLY20      -0.2714
     13  N          3.2300  -15.5700   -6.4540 N.am   21  GLN21      -0.1977
     14  CA         2.1260  -15.9390   -7.3230 C.3    21  GLN21       0.1601
     15  C          0.8270  -15.3670   -6.7720 C.2    21  GLN21       0.2287
     16  O          0.7830  -14.2230   -6.3150 O.2    21  GLN21      -0.2864
     17  CB         1.9920  -17.4890   -7.4460 C.3    21  GLN21       0.0394
     18  CG         2.1330  -18.2780   -6.1740 C.3    21  GLN21       0.0908
     19  CD         3.5810  -18.5160   -5.7990 C.2    21  GLN21       0.2608
     20  OE1        4.0890  -17.9110   -4.8590 O.2    21  GLN21      -0.2717
     21  NE2        4.2510  -19.3910   -6.5310 N.am   21  GLN21      -0.0878
     22  N          4.1000  -12.8280  -10.4370 N.3    27  VAL27      -0.1245
     23  CA         4.9720  -11.6420  -10.4620 C.3    27  VAL27       0.1561
     24  C          6.4570  -12.0110  -10.4100 C.2    27  VAL27       0.2260
     25  O          6.8600  -12.8110   -9.5910 O.2    27  VAL27      -0.2867
     26  CB         4.6810  -10.6910   -9.2840 C.3    27  VAL27       0.0252
     27  CG1        5.4020   -9.3710   -9.4770 C.3    27  VAL27       0.0019
     28  CG2        3.1820  -10.4440   -9.1200 C.3    27  VAL27       0.0019
     29  N         10.0700   -5.1750  -11.9490 N.3    39  ALA39      -0.1245
     30  CA         9.0140   -6.1160  -11.6180 C.3    39  ALA39       0.1562
     31  C          8.1570   -6.3350  -12.8760 C.2    39  ALA39       0.2260
     32  O          7.9990   -5.4190  -13.6800 O.2    39  ALA39      -0.2867
     33  CB         8.1870   -5.5970  -10.4780 C.3    39  ALA39       0.0290
     34  N          4.4590   -7.9200  -13.5860 N.3    41  LYS41      -0.1245
     35  CA         3.1750   -8.5250  -13.2420 C.3    41  LYS41       0.1561
     36  C          2.4950   -9.0750  -14.5010 C.2    41  LYS41       0.2260
     37  O          2.5990   -8.4750  -15.5700 O.2    41  LYS41      -0.2867
     38  CB         2.2680   -7.4850  -12.5590 C.3    41  LYS41       0.0271
     39  CG         1.5110   -7.9740  -11.3150 C.3    41  LYS41       0.0035
     40  CD         1.0220   -6.7890  -10.4610 C.3    41  LYS41       0.0206
     41  CE        -0.4150   -6.9480   -9.9750 C.3    41  LYS41       0.1093
     42  NZ        -0.6490   -6.1800   -8.7160 N.3    41  LYS41      -0.1314
     43  N         -2.5530    3.6720  -13.1410 N.3    60  MET60      -0.1245
     44  CA        -1.1040    3.6670  -12.8910 C.3    60  MET60       0.1570
     45  C         -0.3230    4.4880  -13.9240 C.2    60  MET60       0.2261
     46  O          0.8490    4.7850  -13.7060 O.2    60  MET60      -0.2867
     47  CB        -0.5360    2.2330  -12.8080 C.3    60  MET60       0.0387
     48  CG        -0.5990    1.5820  -11.3890 C.3    60  MET60       0.0595
     49  SD         0.9610    1.6290  -10.3520 S.3    60  MET60      -0.1393
     50  CE         0.4930    2.8630   -8.9960 C.3    60  MET60       0.0692
     51  N          4.4220    3.2600   -6.4010 N.3    69  VAL69      -0.1245
     52  CA         5.2750    2.4410   -7.2560 C.3    69  VAL69       0.1561
     53  C          4.9660    2.7440   -8.7300 C.2    69  VAL69       0.2260
     54  O          3.8240    2.6110   -9.1500 O.2    69  VAL69      -0.2867
     55  CB         5.0490    0.9290   -7.0270 C.3    69  VAL69       0.0252
     56  CG1        5.9470    0.1570   -7.9250 C.3    69  VAL69       0.0019
     57  CG2        5.3210    0.5100   -5.5920 C.3    69  VAL69       0.0019
     58  N          6.6730   -2.7510  -14.0650 N.3    84  THR84      -0.1203
     59  CA         6.8320   -1.5830  -13.2070 C.3    84  THR84       0.1994
     60  C          8.2260   -1.4830  -12.5850 C.2    84  THR84       0.2618
     61  O          9.1160   -2.2250  -12.9290 O.2    84  THR84      -0.2717
     62  CB         5.7430   -1.5650  -12.1330 C.3    84  THR84       0.1784
     63  OG1        6.1040   -2.4250  -11.0490 O.3    84  THR84      -0.2211
     64  CG2        4.4390   -2.1390  -12.6620 C.3    84  THR84       0.0376
     65  N          8.4220   -0.5320  -11.6820 N.am   85  GLU85      -0.1965
     66  CA         9.7250   -0.3760  -11.0220 C.3    85  GLU85       0.1733
     67  C          9.9350   -1.5250  -10.0270 C.2    85  GLU85       0.2616
     68  O          8.9870   -1.9940   -9.4000 O.2    85  GLU85      -0.2715
     69  CB         9.8640    1.0000  -10.3240 C.3    85  GLU85       0.0429
     70  CG         8.9250    1.2270   -9.1370 C.3    85  GLU85       0.1163
     71  CD         9.2760    2.4660   -8.3290 C.2    85  GLU85       0.3649
     72  OE1        8.5480    3.4800   -8.4200 O.co2  85  GLU85      -0.2457
     73  OE2       10.2910    2.4280   -7.6080 O.co2  85  GLU85      -0.2457
     74  N         11.1740   -1.9830   -9.9020 N.am   86  TYR86      -0.1960
     75  CA        11.4850   -3.0450   -8.9600 C.3    86  TYR86       0.1771
     76  C         11.6330   -2.5020   -7.5450 C.2    86  TYR86       0.2619
     77  O         12.3650   -1.5270   -7.3210 O.2    86  TYR86      -0.2715
     78  CB        12.7770   -3.7660   -9.3570 C.3    86  TYR86       0.0574
     79  CG        12.9970   -5.0370   -8.5780 C.ar   86  TYR86      -0.0198
     80  CD1       11.9590   -5.9330   -8.3720 C.ar   86  TYR86      -0.0009
     81  CD2       14.2280   -5.3420   -8.0450 C.ar   86  TYR86      -0.0009
     82  CE1       12.1390   -7.0780   -7.6600 C.ar   86  TYR86       0.0417
     83  CE2       14.4210   -6.4990   -7.3360 C.ar   86  TYR86       0.0417
     84  CZ        13.3630   -7.3550   -7.1400 C.ar   86  TYR86       0.1957
     85  OH        13.5150   -8.5250   -6.4400 O.3    86  TYR86      -0.2866
     86  N         10.9420   -3.1400   -6.6010 N.am   87  MET87      -0.1963
     87  CA        11.1290   -2.8630   -5.1860 C.3    87  MET87       0.1736
     88  C         11.7450   -4.1060   -4.5990 C.2    87  MET87       0.2616
     89  O         11.1050   -5.1460   -4.5530 O.2    87  MET87      -0.2715
     90  CB         9.8080   -2.5650   -4.5000 C.3    87  MET87       0.0427
     91  CG         8.9940   -1.4540   -5.1470 C.3    87  MET87       0.0599
     92  SD         9.7280    0.1920   -5.1480 S.3    87  MET87      -0.1393
     93  CE        10.3600    0.3350   -3.5320 C.3    87  MET87       0.0692
     94  N         12.9740   -3.9710   -4.1100 N.am   88  ASN88      -0.1958
     95  CA        13.8460   -5.1090   -3.8030 C.3    88  ASN88       0.1819
     96  C         13.9670   -5.6110   -2.3470 C.2    88  ASN88       0.2621
     97  O         14.9400   -6.3050   -2.0500 O.2    88  ASN88      -0.2715
     98  CB        15.2480   -4.7850   -4.2970 C.3    88  ASN88       0.1195
     99  CG        15.7540   -3.4830   -3.7570 C.2    88  ASN88       0.2630
    100  OD1       15.3360   -2.4130   -4.2180 O.2    88  ASN88      -0.2716
    101  ND2       16.6410   -3.5470   -2.7670 N.am   88  ASN88      -0.0877
    102  N         13.0230   -5.2820   -1.4530 N.am   89  LYS89      -0.1963
    103  CA        12.8840   -5.9830   -0.1380 C.3    89  LYS89       0.1728
    104  C         11.4780   -6.5980    0.0780 C.2    89  LYS89       0.2617
    105  O         11.1580   -7.0700    1.1800 O.2    89  LYS89      -0.2715
    106  CB        13.2800   -5.0940    1.0830 C.3    89  LYS89       0.0311
    107  CG        14.7110   -4.4400    1.0470 C.3    89  LYS89       0.0038
    108  CD        15.8880   -5.4840    0.9440 C.3    89  LYS89       0.0206
    109  CE        17.3000   -4.8310    0.9860 C.3    89  LYS89       0.1093
    110  NZ        18.2330   -5.2930   -0.0930 N.3    89  LYS89      -0.1314
    111  N         10.6550   -6.6180   -0.9740 N.am   90  GLY90      -0.1940
    112  CA         9.3440   -7.2400   -0.9020 C.3    90  GLY90       0.2014
    113  C          8.3700   -6.4140   -0.1030 C.2    90  GLY90       0.2639
    114  O          8.6760   -5.2840    0.2300 O.2    90  GLY90      -0.2714
    115  N          7.2060   -6.9660    0.2190 N.am   91  SER91      -0.1949
    116  CA         6.1720   -6.2130    0.9470 C.3    91  SER91       0.1924
    117  C          6.6680   -5.5860    2.2680 C.2    91  SER91       0.2314
    118  O          7.7070   -5.9850    2.8040 O.2    91  SER91      -0.2863
    119  CB         5.0080   -7.1300    1.2600 C.3    91  SER91       0.2116
    120  OG         5.4950   -8.2320    1.9950 O.3    91  SER91      -0.2180
    121  N          6.6700   -8.6790    5.0030 N.3    94  ASP94      -0.1239
    122  CA         7.8530   -9.5470    4.9410 C.3    94  ASP94       0.1674
    123  C          9.0560   -8.8850    5.5580 C.2    94  ASP94       0.2266
    124  O          9.7150   -9.4470    6.4030 O.2    94  ASP94      -0.2867
    125  CB         8.2410   -9.8430    3.4870 C.3    94  ASP94       0.1410
    126  CG         7.2470  -10.6910    2.7680 C.2    94  ASP94       0.3668
    127  OD1        6.2360  -11.1880    3.3460 O.co2  94  ASP94      -0.2456
    128  OD2        7.4330  -10.9180    1.5700 O.co2  94  ASP94      -0.2456
    129  N          1.2400   -5.4030    3.9080 N.3   136  ALA136     -0.1245
    130  CA         1.3700   -6.4180    2.8320 C.3   136  ALA136      0.1562
    131  C          1.2730   -5.8340    1.3970 C.2   136  ALA136      0.2260
    132  O          1.8090   -6.3990    0.4270 O.2   136  ALA136     -0.2867
    133  CB         0.2990   -7.5280    3.0280 C.3   136  ALA136      0.0290
    134  N          5.5000   -1.6470   -0.4290 N.3   139  LEU139     -0.1245
    135  CA         6.7120   -2.3000   -0.8940 C.3   139  LEU139      0.1561
    136  C          7.9260   -1.5000   -0.4050 C.2   139  LEU139      0.2260
    137  O          7.8470   -0.3120   -0.1370 O.2   139  LEU139     -0.2867
    138  CB         6.6810   -2.4700   -2.4200 C.3   139  LEU139      0.0270
    139  CG         5.9240   -3.7120   -2.9330 C.3   139  LEU139      0.0019
    140  CD1        5.4740   -3.6030   -4.4100 C.3   139  LEU139      0.0001
    141  CD2        6.7720   -4.9870   -2.7200 C.3   139  LEU139      0.0001
    142  N          1.3810    0.8360   -3.3980 N.3   149  ALA149     -0.1231
    143  CA         0.9400    0.4240   -4.7430 C.3   149  ALA149      0.1694
    144  C          0.3730   -0.9720   -4.7280 C.2   149  ALA149      0.2592
    145  O          0.2760   -1.5960   -3.6730 O.2   149  ALA149     -0.2718
    146  CB         2.0650    0.4580   -5.7270 C.3   149  ALA149      0.0304
    147  N         -0.0420   -1.4270   -5.9140 N.am  150  ASP150     -0.1974
    148  CA        -0.0500   -2.8680   -6.2620 C.3   150  ASP150      0.1709
    149  C         -0.3760   -3.1050   -7.7480 C.2   150  ASP150      0.2293
    150  O          0.4180   -3.7200   -8.4670 O.2   150  ASP150     -0.2864
    151  CB        -0.9840   -3.7100   -5.3550 C.3   150  ASP150      0.1436
    152  CG        -0.3030   -4.9910   -4.8440 C.2   150  ASP150      0.3671
    153  OD1       -0.3730   -6.0310   -5.5680 O.co2 150  ASP150     -0.2456
    154  OD2        0.3280   -5.0440   -3.7500 O.co2 150  ASP150     -0.2456
@<TRIPOS>BOND
     1    37    36    2
     2    36    35    1
     3    58    59    1
     4    45    46    2
     5    45    44    1
     6    32    31    2
     7    34    35    1
     8    35    38    1
     9    59    60    1
    10    59    62    1
    11    43    44    1
    12    61    60    2
    13    44    47    1
    14    31    30    1
    15    47    48    1
    16    64    62    1
    17    60    65   am
    18    38    39    1
    19    62    63    1
    20    29    30    1
    21    65    66    1
    22    30    33    1
    23    48    49    1
    24    39    40    1
    25    66    69    1
    26    66    67    1
    27    23    22    1
    28    23    24    1
    29    23    26    1
    30    40    41    1
    31    24    25    2
    32    49    50    1
    33    69    70    1
    34    67    74   am
    35    67    68    2
    36    41    42    1
    37    74    75    1
    38    27    26    1
    39    78    75    1
    40    78    79    1
    41    26    28    1
    42    54    53    2
    43    70    71    1
    44    75    76    1
    45    53    52    1
    46    79    80   ar
    47    79    81   ar
    48   150   149    2
    49    72    71   ar
    50    80    82   ar
    51    71    73   ar
    52    12    11    2
    53    81    83   ar
    54     1     2    1
    55    56    55    1
    56   149   148    1
    57    82    84   ar
    58     7     6    1
    59    76    77    2
    60    76    86   am
    61     6     5    1
    62     6     8    1
    63    17    14    1
    64    17    18    1
    65    83    84   ar
    66    14    15    1
    67    14    13    1
    68    52    55    1
    69    52    51    1
    70    84    85    1
    71    55    57    1
    72    11    13   am
    73    11    10    1
    74     5     2    1
    75    15    16    2
    76     2     3    1
    77    86    87    1
    78    21    19   am
    79     9     3   am
    80     9    10    1
    81   148   147    1
    82   148   151    1
    83    18    19    1
    84     3     4    2
    85   147   144   am
    86    19    20    2
    87   146   143    1
    88   153   152   ar
    89   151   152    1
    90    87    88    1
    91    87    90    1
    92    92    91    1
    93    92    93    1
    94    91    90    1
    95   152   154   ar
    96   143   144    1
    97   143   142    1
    98   144   145    2
    99    88    89    2
   100    88    94   am
   101   140   139    1
   102    98    95    1
   103    98    99    1
   104   100    99    2
   105    94    95    1
   106    95    96    1
   107    99   101   am
   108   139   141    1
   109   139   138    1
   110   138   135    1
   111    96    97    2
   112    96   102   am
   113   102   103    1
   114   111   112    1
   115   111   104   am
   116   112   113    1
   117   135   134    1
   118   135   136    1
   119   136   137    2
   120   103   104    1
   121   103   106    1
   122   113   115   am
   123   113   114    2
   124   110   109    1
   125   104   105    2
   126   115   116    1
   127   132   131    2
   128   108   109    1
   129   108   107    1
   130   116   119    1
   131   116   117    1
   132   107   106    1
   133   119   120    1
   134   131   130    1
   135   128   126   ar
   136   117   118    2
   137   126   127   ar
   138   126   125    1
   139   130   133    1
   140   130   129    1
   141   125   122    1
   142   122   121    1
   143   122   123    1
   144   123   124    2
