@<TRIPOS>MOLECULE
tmp/1yonA00.pdb
 208 196 0 0 0
SMALL
GASTEIGER

@<TRIPOS>ATOM
      1  N         20.7260    0.4460    3.1110 N.3     9  GLY9       -0.1210
      2  CA        20.4730   -0.5310    4.1620 C.3     9  GLY9        0.1956
      3  C         19.1680   -1.2570    3.8930 C.2     9  GLY9        0.2612
      4  O         18.7780   -1.3620    2.7480 O.2     9  GLY9       -0.2717
      5  N         18.5180   -1.7890    4.9280 N.am   10  ALA10      -0.1965
      6  CA        17.3980   -2.7320    4.7300 C.3    10  ALA10       0.1728
      7  C         16.2480   -2.0740    4.0010 C.2    10  ALA10       0.2616
      8  O         15.7700   -2.5810    3.0140 O.2    10  ALA10      -0.2715
      9  CB        16.8890   -3.2790    6.0600 C.3    10  ALA10       0.0334
     10  N         15.7910   -0.9630    4.5380 N.am   11  LEU11      -0.1963
     11  CA        14.6740   -0.2330    3.9030 C.3    11  LEU11       0.1728
     12  C         15.0540    0.2810    2.5170 C.2    11  LEU11       0.2616
     13  O         14.2580    0.2270    1.6070 O.2    11  LEU11      -0.2715
     14  CB        14.2630    0.9110    4.8090 C.3    11  LEU11       0.0311
     15  CG        13.1250    1.8480    4.3780 C.3    11  LEU11       0.0022
     16  CD1       11.8610    1.0550    4.1540 C.3    11  LEU11       0.0001
     17  CD2       12.9120    2.8960    5.4440 C.3    11  LEU11       0.0001
     18  N         16.2700    0.8120    2.3450 N.am   12  GLY12      -0.1955
     19  CA        16.7060    1.2840    1.0470 C.3    12  GLY12       0.1869
     20  C         16.7020    0.1840    0.0090 C.2    12  GLY12       0.2309
     21  O         16.2990    0.3850   -1.1240 O.2    12  GLY12      -0.2863
     22  N         16.2500    6.9160    3.2560 N.3    70  THR70      -0.1203
     23  CA        15.9440    5.7750    4.1300 C.3    70  THR70       0.1994
     24  C         17.0150    5.5480    5.1940 C.2    70  THR70       0.2618
     25  O         17.1350    4.4310    5.7550 O.2    70  THR70      -0.2717
     26  CB        15.8040    4.5070    3.3190 C.3    70  THR70       0.1784
     27  OG1       17.0350    4.2210    2.6280 O.3    70  THR70      -0.2211
     28  CG2       14.7300    4.6090    2.2110 C.3    70  THR70       0.0376
     29  N         17.7710    6.6030    5.4710 N.am   71  LEU71      -0.1965
     30  CA        18.7450    6.5970    6.5500 C.3    71  LEU71       0.1728
     31  C         18.1020    6.6060    7.9340 C.2    71  LEU71       0.2616
     32  O         16.9610    7.0560    8.1350 O.2    71  LEU71      -0.2715
     33  CB        19.6310    7.8350    6.4330 C.3    71  LEU71       0.0311
     34  CG        20.4820    7.8740    5.1640 C.3    71  LEU71       0.0022
     35  CD1       21.1170    9.2380    5.0730 C.3    71  LEU71       0.0001
     36  CD2       21.5060    6.7360    5.1400 C.3    71  LEU71       0.0001
     37  N         18.8850    6.1830    8.9020 N.am   72  LYS72      -0.1977
     38  CA        18.5160    6.3160   10.3010 C.3    72  LYS72       0.1596
     39  C         18.4730    7.7820   10.6590 C.2    72  LYS72       0.2287
     40  O         19.1910    8.6130   10.0820 O.2    72  LYS72      -0.2864
     41  CB        19.5080    5.5630   11.1890 C.3    72  LYS72       0.0298
     42  CG        19.6260    4.0510   10.8340 C.3    72  LYS72       0.0038
     43  CD        19.4460    3.1200   12.0470 C.3    72  LYS72       0.0206
     44  CE        19.7600    1.6260   11.7130 C.3    72  LYS72       0.1093
     45  NZ        20.1600    0.7550   12.9140 N.3    72  LYS72      -0.1314
     46  N         21.4050   10.2530   10.9480 N.3    75  GLN75      -0.1245
     47  CA        22.1690   10.4540    9.7020 C.3    75  GLN75       0.1566
     48  C         21.5120   11.3460    8.6110 C.2    75  GLN75       0.2260
     49  O         22.1720   11.8510    7.6700 O.2    75  GLN75      -0.2867
     50  CB        22.3780    9.0870    9.0450 C.3    75  GLN75       0.0367
     51  CG        23.3680    8.1670    9.7610 C.3    75  GLN75       0.0905
     52  CD        23.2840    6.7070    9.3140 C.2    75  GLN75       0.2608
     53  OE1       24.2360    5.9680    9.5060 O.2    75  GLN75      -0.2717
     54  NE2       22.1330    6.2800    8.7670 N.am   75  GLN75      -0.0878
     55  N         11.8260    8.6860    4.9640 N.3    96  ILE96      -0.1231
     56  CA        11.2090    7.6140    5.7100 C.3    96  ILE96       0.1692
     57  C         12.1790    7.1040    6.7660 C.2    96  ILE96       0.2592
     58  O         13.2160    6.5120    6.4390 O.2    96  ILE96      -0.2718
     59  CB        10.8150    6.4610    4.7810 C.3    96  ILE96       0.0266
     60  CG1        9.9460    6.9870    3.6240 C.3    96  ILE96       0.0019
     61  CG2       10.0910    5.3940    5.6080 C.3    96  ILE96       0.0020
     62  CD1        9.5720    5.8740    2.6790 C.3    96  ILE96       0.0001
     63  N         11.8370    7.3970    8.0090 N.am   97  HIS97      -0.1962
     64  CA        12.5260    6.8400    9.1350 C.3    97  HIS97       0.1787
     65  C         11.6990    6.8730   10.3820 C.2    97  HIS97       0.2620
     66  O         10.6410    7.4980   10.4350 O.2    97  HIS97      -0.2715
     67  CB        13.7990    7.6260    9.3890 C.3    97  HIS97       0.0785
     68  CG        13.5940    9.1110    9.5510 C.ar   97  HIS97       0.0821
     69  ND1       13.5620    9.7150   10.7760 N.ar   97  HIS97      -0.2267
     70  CD2       13.3980   10.1050    8.6430 C.ar   97  HIS97       0.1154
     71  CE1       13.3940   11.0240   10.6290 C.ar   97  HIS97       0.1986
     72  NE2       13.2730   11.2880    9.3500 N.ar   97  HIS97      -0.2212
     73  N         12.2480    6.2440   11.4190 N.am   98  ASN98      -0.1972
     74  CA        11.6220    6.2620   12.7180 C.3    98  ASN98       0.1688
     75  C         12.2260    7.4210   13.4280 C.2    98  ASN98       0.2292
     76  O         13.2890    7.8860   13.0380 O.2    98  ASN98      -0.2864
     77  CB        11.8110    4.9150   13.4420 C.3    98  ASN98       0.1181
     78  CG        10.7070    3.9450   13.0730 C.2    98  ASN98       0.2629
     79  OD1        9.5330    4.3300   13.0580 O.2    98  ASN98      -0.2716
     80  ND2       11.0620    2.7190   12.7210 N.am   98  ASN98      -0.0877
     81  N          6.0500    7.1240    6.6860 N.3   117  THR117     -0.1203
     82  CA         6.1950    6.0020    7.5860 C.3   117  THR117      0.1994
     83  C          5.6760    4.7670    6.8870 C.2   117  THR117      0.2619
     84  O          4.9040    4.8490    5.9340 O.2   117  THR117     -0.2717
     85  CB         5.4630    6.3070    8.8660 C.3   117  THR117      0.1784
     86  OG1        5.7210    5.2650    9.8220 O.3   117  THR117     -0.2211
     87  CG2        3.9540    6.2960    8.6270 C.3   117  THR117      0.0376
     88  N          6.1360    3.5940    7.3090 N.am  118  THR118     -0.1938
     89  CA         5.6210    2.3500    6.7060 C.3   118  THR118      0.2028
     90  C          5.5510    1.1960    7.7070 C.2   118  THR118      0.2643
     91  O          6.2800    1.1820    8.6680 O.2   118  THR118     -0.2714
     92  CB         6.4730    1.9140    5.4650 C.3   118  THR118      0.1808
     93  OG1        5.8330    0.8270    4.7970 O.3   118  THR118     -0.2208
     94  CG2        7.7580    1.3440    5.8500 C.3   118  THR118      0.0379
     95  N          4.6320    0.2760    7.4760 N.am  119  THR119     -0.1936
     96  CA         4.5730   -0.9430    8.2730 C.3   119  THR119      0.2028
     97  C          5.1970   -2.1600    7.5710 C.2   119  THR119      0.2642
     98  O          5.1200   -3.2640    8.1010 O.2   119  THR119     -0.2714
     99  CB         3.1500   -1.2390    8.6840 C.3   119  THR119      0.1808
    100  OG1        2.2950   -1.3470    7.5510 O.3   119  THR119     -0.2208
    101  CG2        2.5640   -0.0550    9.5100 C.3   119  THR119      0.0379
    102  N          5.8080   -1.9700    6.3930 N.am  120  HIS120     -0.1959
    103  CA         6.6570   -3.0000    5.8260 C.3   120  HIS120      0.1787
    104  C          7.7000   -3.2530    6.8450 C.2   120  HIS120      0.2620
    105  O          8.0590   -2.3590    7.5930 O.2   120  HIS120     -0.2715
    106  CB         7.3200   -2.6050    4.4750 C.3   120  HIS120      0.0785
    107  CG         6.3590   -2.6330    3.3520 C.ar  120  HIS120      0.0821
    108  ND1        5.6300   -3.7460    3.0410 N.ar  120  HIS120     -0.2267
    109  CD2        5.9690   -1.6860    2.4860 C.ar  120  HIS120      0.1154
    110  CE1        4.8200   -3.4840    2.0410 C.ar  120  HIS120      0.1986
    111  NE2        4.9880   -2.2340    1.7010 N.ar  120  HIS120     -0.2212
    112  N          8.1390   -4.5050    6.9020 N.am  121  ALA121     -0.1963
    113  CA         9.2710   -4.8950    7.6890 C.3   121  ALA121      0.1728
    114  C         10.3300   -5.4960    6.7610 C.2   121  ALA121      0.2616
    115  O         10.0450   -6.3860    5.9300 O.2   121  ALA121     -0.2715
    116  CB         8.8460   -5.8950    8.7780 C.3   121  ALA121      0.0334
    117  N         11.5570   -4.9910    6.9190 N.am  122  ALA122     -0.1977
    118  CA        12.7130   -5.5050    6.2200 C.3   122  ALA122      0.1597
    119  C         13.8090   -5.6740    7.2390 C.2   122  ALA122      0.2287
    120  O         14.2210   -4.7160    7.8810 O.2   122  ALA122     -0.2864
    121  CB        13.1570   -4.5470    5.1300 C.3   122  ALA122      0.0319
    122  N         17.6370   -7.2000    8.1870 N.3   124  ARG124     -0.1245
    123  CA        18.9670   -7.6700    7.7920 C.3   124  ARG124      0.1563
    124  C         19.2750   -9.0360    8.4430 C.2   124  ARG124      0.2260
    125  O         19.1540   -9.1700    9.6510 O.2   124  ARG124     -0.2867
    126  CB        20.0140   -6.6240    8.2210 C.3   124  ARG124      0.0307
    127  CG        21.4780   -6.9420    7.8550 C.3   124  ARG124      0.0489
    128  CD        22.3090   -5.7320    7.3750 C.3   124  ARG124      0.2205
    129  NE        23.1260   -6.0890    6.2110 N.pl3 124  ARG124     -0.0865
    130  CZ        23.3050   -5.3460    5.1030 C.cat 124  ARG124      0.5346
    131  NH1       22.7690   -4.1240    4.9650 N.pl3 124  ARG124      0.1354
    132  NH2       24.0650   -5.8340    4.1230 N.pl3 124  ARG124      0.1354
    133  N          3.2100    7.3110   16.4130 N.3   176  LYS176     -0.1245
    134  CA         4.3170    6.3590   16.3320 C.3   176  LYS176      0.1561
    135  C          5.4570    6.7000   17.3360 C.2   176  LYS176      0.2260
    136  O          6.0070    5.8220   18.0090 O.2   176  LYS176     -0.2867
    137  CB         4.9140    6.3190   14.9410 C.3   176  LYS176      0.0271
    138  CG         4.5180    5.1210   14.0870 C.3   176  LYS176      0.0035
    139  CD         5.7350    4.5100   13.3290 C.3   176  LYS176      0.0206
    140  CE         6.7140    5.5850   12.7080 C.3   176  LYS176      0.1093
    141  NZ         7.5590    5.0840   11.5690 N.3   176  LYS176     -0.1314
    142  N          7.2780    4.5730   20.3210 N.3   180  ASN180     -0.1240
    143  CA         8.7260    4.4260   20.2860 C.3   180  ASN180      0.1653
    144  C          9.3790    4.9210   21.6020 C.2   180  ASN180      0.2266
    145  O         10.3270    4.3090   22.0860 O.2   180  ASN180     -0.2867
    146  CB         9.2630    5.2460   19.1400 C.3   180  ASN180      0.1155
    147  CG         9.8310    4.4220   18.0660 C.2   180  ASN180      0.2627
    148  OD1       11.0590    4.3690   17.9370 O.2   180  ASN180     -0.2716
    149  ND2        8.9580    3.8000   17.2320 N.am  180  ASN180     -0.0877
    150  N         11.2580    1.4020   22.8040 N.3   184  ASN184     -0.1240
    151  CA        12.6690    1.3630   22.4770 C.3   184  ASN184      0.1653
    152  C         13.6150    1.5500   23.6500 C.2   184  ASN184      0.2266
    153  O         14.4940    0.6970   23.8110 O.2   184  ASN184     -0.2867
    154  CB        13.0230    2.3110   21.3170 C.3   184  ASN184      0.1155
    155  CG        12.9800    1.6030   19.9560 C.2   184  ASN184      0.2627
    156  OD1       13.3970    0.4490   19.8150 O.2   184  ASN184     -0.2716
    157  ND2       12.5050    2.2950   18.9580 N.am  184  ASN184     -0.0877
    158  N         14.5790   -2.3070   17.7190 N.3   244  SER244     -0.1217
    159  CA        15.6970   -1.7230   17.0090 C.3   244  SER244      0.1889
    160  C         16.6940   -1.0540   17.9480 C.2   244  SER244      0.2288
    161  O         17.8950   -1.1510   17.7150 O.2   244  SER244     -0.2866
    162  CB        15.2150   -0.7170   15.9350 C.3   244  SER244      0.2089
    163  OG        14.5840    0.4180   16.4980 O.3   244  SER244     -0.2183
    164  N         18.6470   -3.7910   19.7200 N.3   247  GLN247     -0.1231
    165  CA        19.6170   -4.2890   18.7490 C.3   247  GLN247      0.1698
    166  C         20.7920   -3.3720   18.6090 C.2   247  GLN247      0.2592
    167  O         21.9350   -3.8450   18.5300 O.2   247  GLN247     -0.2718
    168  CB        18.9810   -4.5360   17.4000 C.3   247  GLN247      0.0381
    169  CG        18.0910   -5.7470   17.4040 C.3   247  GLN247      0.0905
    170  CD        17.5420   -6.0750   16.0290 C.2   247  GLN247      0.2608
    171  OE1       18.3130   -6.2630   15.0880 O.2   247  GLN247     -0.2717
    172  NE2       16.2180   -6.1490   15.9120 N.am  247  GLN247     -0.0878
    173  N         20.5510   -2.0680   18.6270 N.am  248  ASP248     -0.1974
    174  CA        21.6450   -1.1190   18.5470 C.3   248  ASP248      0.1709
    175  C         22.5650   -1.2220   19.7780 C.2   248  ASP248      0.2293
    176  O         23.7900   -1.0810   19.6630 O.2   248  ASP248     -0.2864
    177  CB        21.1820    0.3380   18.4170 C.3   248  ASP248      0.1436
    178  CG        20.5570    0.6770   17.0610 C.2   248  ASP248      0.3671
    179  OD1       20.6320   -0.1120   16.1000 O.co2 248  ASP248     -0.2456
    180  OD2       19.9180    1.7390   16.9130 O.co2 248  ASP248     -0.2456
    181  N         26.2360    0.0330   18.5170 N.3   253  ARG253     -0.1245
    182  CA        25.9150    1.0990   17.5480 C.3   253  ARG253      0.1563
    183  C         25.2250    2.2950   18.2070 C.2   253  ARG253      0.2260
    184  O         24.4900    2.1690   19.1840 O.2   253  ARG253     -0.2867
    185  CB        25.0020    0.5680   16.4370 C.3   253  ARG253      0.0307
    186  CG        25.4890   -0.6870   15.7890 C.3   253  ARG253      0.0489
    187  CD        25.0300   -0.9190   14.3620 C.3   253  ARG253      0.2205
    188  NE        24.4490   -2.2560   14.1970 N.pl3 253  ARG253     -0.0865
    189  CZ        23.2420   -2.5850   14.6250 C.cat 253  ARG253      0.5346
    190  NH1       22.5150   -1.6810   15.2420 N.pl3 253  ARG253      0.1354
    191  NH2       22.7550   -3.8060   14.4380 N.pl3 253  ARG253      0.1354
    192  N         19.0730    5.8660   17.9530 N.3   256  GLU256     -0.1245
    193  CA        18.1950    6.9590   17.5430 C.3   256  GLU256      0.1567
    194  C         17.5870    7.7760   18.6790 C.2   256  GLU256      0.2260
    195  O         16.6540    8.5300   18.4820 O.2   256  GLU256     -0.2867
    196  CB        17.0760    6.3580   16.6500 C.3   256  GLU256      0.0388
    197  CG        17.6160    6.1660   15.2310 C.3   256  GLU256      0.1160
    198  CD        16.6730    5.4670   14.2860 C.2   256  GLU256      0.3649
    199  OE1       15.9460    4.5400   14.7190 O.co2 256  GLU256     -0.2457
    200  OE2       16.7000    5.8220   13.0810 O.co2 256  GLU256     -0.2457
    201  N         14.1020   10.2730   19.4350 N.3   260  ILE260     -0.1245
    202  CA        12.9350    9.6230   20.0290 C.3   260  ILE260      0.1561
    203  C         12.6730   10.3340   21.3370 C.2   260  ILE260      0.2260
    204  O         12.1390   11.4250   21.3230 O.2   260  ILE260     -0.2867
    205  CB        13.1470    8.1120   20.1460 C.3   260  ILE260      0.0252
    206  CG1       13.4490    7.5340   18.7680 C.3   260  ILE260      0.0019
    207  CG2       11.8660    7.4580   20.6950 C.3   260  ILE260      0.0019
    208  CD1       13.9210    6.0980   18.7480 C.3   260  ILE260      0.0001
@<TRIPOS>BOND
     1    21    20    2
     2    20    19    1
     3    19    18    1
     4    13    12    2
     5   111   110   ar
     6   111   109   ar
     7   110   108   ar
     8    28    26    1
     9    18    12   am
    10   109   107   ar
    11    12    11    1
    12    27    26    1
    13    62    60    1
    14     4     3    2
    15     8     7    2
    16   108   107   ar
    17     1     2    1
    18    22    23    1
    19    26    23    1
    20   107   106    1
    21    60    59    1
    22     3     2    1
    23     3     5   am
    24    11    10    1
    25    11    14    1
    26     7    10   am
    27     7     6    1
    28   132   130    1
    29    23    24    1
    30    16    15    1
    31    15    14    1
    32    15    17    1
    33   106   103    1
    34     6     5    1
    35     6     9    1
    36    59    61    1
    37    59    56    1
    38    93    92    1
    39    55    56    1
    40   131   130    1
    41    35    34    1
    42   130   129    2
    43   121   118    1
    44    36    34    1
    45    34    33    1
    46    24    29   am
    47    24    25    2
    48    92    94    1
    49    92    89    1
    50    29    30    1
    51    56    57    1
    52   103   102    1
    53   103   104    1
    54   115   114    2
    55    84    83    2
    56   129   128    1
    57   118   117    1
    58   118   119    1
    59   102    97   am
    60    33    30    1
    61    58    57    2
    62    30    31    1
    63    81    82    1
    64    89    88    1
    65    89    90    1
    66   114   117   am
    67   114   113    1
    68    57    63   am
    69   104   112   am
    70   104   105    2
    71    83    88   am
    72    83    82    1
    73   112   113    1
    74   119   120    2
    75   128   127    1
    76    95    90   am
    77    95    96    1
    78   100    99    1
    79    97    98    2
    80    97    96    1
    81    82    85    1
    82    49    48    2
    83   113   116    1
    84    90    91    2
    85   123   122    1
    86   123   126    1
    87   123   124    1
    88   127   126    1
    89    31    32    2
    90    31    37   am
    91    63    64    1
    92    96    99    1
    93   124   125    2
    94    48    47    1
    95    87    85    1
    96    70    72   ar
    97    70    68   ar
    98    99   101    1
    99    54    52   am
   100    85    86    1
   101    37    38    1
   102    50    47    1
   103    50    51    1
   104    64    67    1
   105    64    65    1
   106    52    53    2
   107    52    51    1
   108    72    71   ar
   109    67    68    1
   110    68    69   ar
   111    47    46    1
   112    40    39    2
   113    38    39    1
   114    38    41    1
   115    65    66    2
   116    65    73   am
   117    71    69   ar
   118    42    41    1
   119    42    43    1
   120    73    74    1
   121   141   140    1
   122    44    43    1
   123    44    45    1
   124   140   139    1
   125    74    75    1
   126    74    77    1
   127    80    78   am
   128    76    75    2
   129    79    78    2
   130    78    77    1
   131   200   198   ar
   132   139   138    1
   133   138   137    1
   134   188   187    1
   135   188   189    2
   136   198   199   ar
   137   198   197    1
   138   187   186    1
   139   191   189    1
   140   189   190    1
   141   137   134    1
   142   171   170    2
   143   197   196    1
   144   186   185    1
   145   172   170   am
   146   162   163    1
   147   162   159    1
   148   170   169    1
   149   179   178   ar
   150   134   133    1
   151   134   135    1
   152   185   182    1
   153   196   193    1
   154   180   178   ar
   155   159   158    1
   156   159   160    1
   157   178   177    1
   158   149   147   am
   159   135   136    2
   160   168   169    1
   161   168   165    1
   162   193   192    1
   163   193   194    1
   164   182   183    1
   165   182   181    1
   166   161   160    2
   167   148   147    2
   168   147   146    1
   169   183   184    2
   170   177   174    1
   171   195   194    2
   172   167   166    2
   173   174   173    1
   174   174   175    1
   175   166   173   am
   176   166   165    1
   177   208   206    1
   178   165   164    1
   179   206   205    1
   180   157   155   am
   181   146   143    1
   182   201   202    1
   183   176   175    2
   184   156   155    2
   185   155   154    1
   186   202   205    1
   187   202   203    1
   188   205   207    1
   189   143   142    1
   190   143   144    1
   191   154   151    1
   192   204   203    2
   193   144   145    2
   194   151   150    1
   195   151   152    1
   196   152   153    2
