@<TRIPOS>MOLECULE
tmp/1youA00.pdb
 156 156 0 0 0
SMALL
GASTEIGER

@<TRIPOS>ATOM
      1  N         38.9440   44.8600   -6.8420 N.3    80  GLY80      -0.1210
      2  CA        40.1250   44.9080   -5.9900 C.3    80  GLY80       0.1956
      3  C         40.1690   43.8680   -4.8640 C.2    80  GLY80       0.2612
      4  O         40.0390   42.6520   -5.0620 O.2    80  GLY80      -0.2717
      5  N         40.3630   44.3610   -3.6570 N.am   81  LEU81      -0.1965
      6  CA        40.4380   43.5180   -2.5020 C.3    81  LEU81       0.1728
      7  C         39.0960   42.8030   -2.3200 C.2    81  LEU81       0.2616
      8  O         38.0220   43.4200   -2.3770 O.2    81  LEU81      -0.2715
      9  CB        40.6850   44.4490   -1.3300 C.3    81  LEU81       0.0311
     10  CG        42.0470   44.7570   -0.7170 C.3    81  LEU81       0.0022
     11  CD1       43.2310   44.7190   -1.7200 C.3    81  LEU81       0.0001
     12  CD2       41.9180   46.1060    0.0600 C.3    81  LEU81       0.0001
     13  N         39.1580   41.5210   -2.0110 N.am   82  LEU82      -0.1963
     14  CA        37.9780   40.6620   -1.9160 C.3    82  LEU82       0.1728
     15  C         37.7150   40.2740   -0.4630 C.2    82  LEU82       0.2616
     16  O         36.5640   40.2940   -0.0390 O.2    82  LEU82      -0.2715
     17  CB        38.1550   39.3840   -2.7110 C.3    82  LEU82       0.0311
     18  CG        38.2130   39.3860   -4.2400 C.3    82  LEU82       0.0022
     19  CD1       37.8490   37.9990   -4.6920 C.3    82  LEU82       0.0001
     20  CD2       37.2970   40.4090   -4.8940 C.3    82  LEU82       0.0001
     21  N         38.7760   39.8870    0.2560 N.am   83  ALA83      -0.1963
     22  CA        38.6910   39.4770    1.6760 C.3    83  ALA83       0.1728
     23  C         40.1060   39.6520    2.2440 C.2    83  ALA83       0.2616
     24  O         41.0380   39.9270    1.4830 O.2    83  ALA83      -0.2715
     25  CB        38.2180   37.9970    1.7810 C.3    83  ALA83       0.0334
     26  N         40.2770   39.5260    3.5630 N.am   84  HIS84      -0.1959
     27  CA        41.6050   39.2290    4.1390 C.3    84  HIS84       0.1787
     28  C         41.5400   38.4050    5.4240 C.2    84  HIS84       0.2620
     29  O         40.4670   38.2430    5.9990 O.2    84  HIS84      -0.2715
     30  CB        42.4890   40.4530    4.3130 C.3    84  HIS84       0.0785
     31  CG        41.8610   41.5750    5.0730 C.ar   84  HIS84       0.0821
     32  ND1       41.9930   42.8790    4.6830 N.ar   84  HIS84      -0.2267
     33  CD2       41.1040   41.5910    6.1930 C.ar   84  HIS84       0.1154
     34  CE1       41.3320   43.6570    5.5220 C.ar   84  HIS84       0.1986
     35  NE2       40.7760   42.8960    6.4430 N.ar   84  HIS84      -0.2212
     36  N         42.6950   37.8830    5.8640 N.am   85  ALA85      -0.1977
     37  CA        42.7460   37.0770    7.0560 C.3    85  ALA85       0.1597
     38  C         44.0950   37.2000    7.6880 C.2    85  ALA85       0.2287
     39  O         45.0500   37.3980    6.9840 O.2    85  ALA85      -0.2864
     40  CB        42.4280   35.5960    6.7320 C.3    85  ALA85       0.0319
     41  N         35.3160   29.3030   -2.4350 N.3   115  LEU115     -0.1231
     42  CA        36.6620   29.3450   -2.9660 C.3   115  LEU115      0.1693
     43  C         37.4850   30.4470   -2.3140 C.2   115  LEU115      0.2591
     44  O         38.6170   30.1920   -1.9130 O.2   115  LEU115     -0.2718
     45  CB        36.6970   29.4900   -4.5020 C.3   115  LEU115      0.0284
     46  CG        35.9590   28.3840   -5.2840 C.3   115  LEU115      0.0019
     47  CD1       35.6550   28.9160   -6.7350 C.3   115  LEU115      0.0001
     48  CD2       36.8000   27.1360   -5.2380 C.3   115  LEU115      0.0001
     49  N         36.9340   31.6510   -2.2510 N.am  116  VAL116     -0.1980
     50  CA        37.6180   32.7640   -1.6270 C.3   116  VAL116      0.1595
     51  C         37.9400   32.5530   -0.1100 C.2   116  VAL116      0.2287
     52  O         39.0650   32.8690    0.3380 O.2   116  VAL116     -0.2864
     53  CB        36.8360   34.0840   -1.8780 C.3   116  VAL116      0.0276
     54  CG1       37.4090   35.2790   -1.0640 C.3   116  VAL116      0.0022
     55  CG2       36.8130   34.3550   -3.3570 C.3   116  VAL116      0.0022
     56  N         40.6480   29.9440    0.3710 N.3   119  HIS119     -0.1226
     57  CA        41.8990   30.7160    0.2710 C.3   119  HIS119      0.1752
     58  C         42.2530   31.5410    1.5470 C.2   119  HIS119      0.2595
     59  O         43.4000   31.4810    2.0230 O.2   119  HIS119     -0.2718
     60  CB        41.9020   31.5670   -0.9990 C.3   119  HIS119      0.0759
     61  CG        43.0730   32.5010   -1.1360 C.ar  119  HIS119      0.0818
     62  ND1       44.1280   32.2560   -1.9880 N.ar  119  HIS119     -0.2268
     63  CD2       43.3180   33.7170   -0.5870 C.ar  119  HIS119      0.1154
     64  CE1       44.9830   33.2540   -1.9410 C.ar  119  HIS119      0.1986
     65  NE2       44.5180   34.1580   -1.0950 N.ar  119  HIS119     -0.2212
     66  N         41.2860   32.3010    2.0830 N.am  120  GLU120     -0.1979
     67  CA        41.5030   33.0920    3.3100 C.3   120  GLU120      0.1602
     68  C         41.8890   32.2380    4.5330 C.2   120  GLU120      0.2287
     69  O         42.6470   32.6820    5.4000 O.2   120  GLU120     -0.2864
     70  CB        40.2480   33.8970    3.6540 C.3   120  GLU120      0.0415
     71  CG        39.8360   34.9870    2.6090 C.3   120  GLU120      0.1163
     72  CD        41.0220   35.7780    2.0490 C.2   120  GLU120      0.3649
     73  OE1       41.7860   36.3280    2.8350 O.co2 120  GLU120     -0.2457
     74  OE2       41.1910   35.8380    0.8100 O.co2 120  GLU120     -0.2457
     75  N         45.5490   31.4060    4.7740 N.3   123  HIS123     -0.1241
     76  CA        46.1330   32.5400    5.4690 C.3   123  HIS123      0.1621
     77  C         45.9360   32.4760    7.0030 C.2   123  HIS123      0.2264
     78  O         46.9310   32.5440    7.7680 O.2   123  HIS123     -0.2867
     79  CB        45.5540   33.8130    4.9170 C.3   123  HIS123      0.0745
     80  CG        46.1270   34.2310    3.5910 C.ar  123  HIS123      0.0817
     81  ND1       47.4430   34.0230    3.2410 N.ar  123  HIS123     -0.2268
     82  CD2       45.5780   34.9210    2.5690 C.ar  123  HIS123      0.1154
     83  CE1       47.6790   34.5420    2.0560 C.ar  123  HIS123      0.1986
     84  NE2       46.5640   35.0990    1.6270 N.ar  123  HIS123     -0.2212
     85  N         51.2770   33.3430   -0.0480 N.3   129  HIS129     -0.1241
     86  CA        51.0150   33.0990   -1.4870 C.3   129  HIS129      0.1621
     87  C         51.9240   32.1420   -2.2100 C.2   129  HIS129      0.2264
     88  O         53.1170   32.1100   -2.0040 O.2   129  HIS129     -0.2867
     89  CB        50.8290   34.3880   -2.2770 C.3   129  HIS129      0.0745
     90  CG        49.5930   35.1090   -1.8570 C.ar  129  HIS129      0.0817
     91  ND1       49.5440   36.4660   -1.6660 N.ar  129  HIS129     -0.2268
     92  CD2       48.3880   34.6290   -1.4750 C.ar  129  HIS129      0.1154
     93  CE1       48.3590   36.8030   -1.2170 C.ar  129  HIS129      0.1986
     94  NE2       47.6370   35.7090   -1.0800 N.ar  129  HIS129     -0.2212
     95  N         48.4330   27.0520  -10.5260 N.3   134  GLY134     -0.1210
     96  CA        47.3380   26.1350  -10.2490 C.3   134  GLY134      0.1956
     97  C         46.9100   26.0960   -8.7880 C.2   134  GLY134      0.2612
     98  O         45.8640   25.5650   -8.4630 O.2   134  GLY134     -0.2717
     99  N         47.7260   26.6560   -7.8970 N.am  135  ALA135     -0.1965
    100  CA        47.5190   26.4710   -6.4460 C.3   135  ALA135      0.1728
    101  C         46.4250   27.3830   -5.8820 C.2   135  ALA135      0.2616
    102  O         46.2610   28.5400   -6.3270 O.2   135  ALA135     -0.2715
    103  CB        48.8400   26.6480   -5.6880 C.3   135  ALA135      0.0334
    104  N         45.6700   26.8680   -4.9090 N.am  136  LEU136     -0.1977
    105  CA        44.6220   27.6500   -4.2510 C.3   136  LEU136      0.1596
    106  C         45.1470   28.9110   -3.5540 C.2   136  LEU136      0.2287
    107  O         44.4100   29.8840   -3.4000 O.2   136  LEU136     -0.2864
    108  CB        43.8240   26.7860   -3.2850 C.3   136  LEU136      0.0297
    109  CG        42.8230   27.5250   -2.3680 C.3   136  LEU136      0.0022
    110  CD1       41.5350   27.8690   -3.1550 C.3   136  LEU136      0.0001
    111  CD2       42.4620   26.6680   -1.1720 C.3   136  LEU136      0.0001
    112  N         47.3460   30.7510   -4.6880 N.3   138  PHE138     -0.1228
    113  CA        47.7120   31.6640   -5.7730 C.3   138  PHE138      0.1721
    114  C         46.7600   32.8310   -5.7580 C.2   138  PHE138      0.2437
    115  O         45.5140   32.6340   -5.8090 O.2   138  PHE138     -0.2733
    116  CB        47.6760   30.9540   -7.1340 C.3   138  PHE138      0.0547
    117  CG        48.4540   31.6750   -8.2370 C.ar  138  PHE138     -0.0202
    118  CD1       49.8740   31.7380   -8.1840 C.ar  138  PHE138     -0.0042
    119  CD2       47.7730   32.2800   -9.3040 C.ar  138  PHE138     -0.0042
    120  CE1       50.6180   32.4260   -9.1240 C.ar  138  PHE138     -0.0003
    121  CE2       48.4900   32.9370  -10.2950 C.ar  138  PHE138     -0.0003
    122  CZ        49.9480   33.0250  -10.1950 C.ar  138  PHE138     -0.0000
    123  N         47.3110   34.0710   -5.7030 N.am  139  PRO139     -0.2718
    124  CA        46.4640   35.2600   -5.4880 C.3   139  PRO139      0.1535
    125  C         45.6540   35.6990   -6.6970 C.2   139  PRO139      0.2598
    126  O         45.5240   36.9100   -6.9570 O.2   139  PRO139     -0.2715
    127  CB        47.4720   36.3380   -5.1330 C.3   139  PRO139      0.0310
    128  CG        48.7590   35.8800   -5.6820 C.3   139  PRO139      0.0237
    129  CD        48.7280   34.4100   -5.8550 C.3   139  PRO139      0.0939
    130  N         45.1140   34.7550   -7.4610 N.am  140  ILE140     -0.1964
    131  CA        44.2150   35.1350   -8.5560 C.3   140  ILE140      0.1727
    132  C         42.9890   34.2600   -8.4580 C.2   140  ILE140      0.2616
    133  O         43.1120   33.0590   -8.3840 O.2   140  ILE140     -0.2715
    134  CB        44.8520   34.9610   -9.9850 C.3   140  ILE140      0.0290
    135  CG1       46.1620   35.7820  -10.1500 C.3   140  ILE140      0.0022
    136  CG2       43.8140   35.2910  -11.0900 C.3   140  ILE140      0.0023
    137  CD1       46.1460   36.7370  -11.2950 C.3   140  ILE140      0.0001
    138  N         41.8100   34.8740   -8.4660 N.am  141  TYR141     -0.1960
    139  CA        40.5740   34.1670   -8.5130 C.3   141  TYR141      0.1771
    140  C         40.3910   33.4620   -9.8740 C.2   141  TYR141      0.2620
    141  O         40.5580   34.0910  -10.9080 O.2   141  TYR141     -0.2715
    142  CB        39.4410   35.1500   -8.2330 C.3   141  TYR141      0.0574
    143  CG        38.1060   34.4940   -8.1450 C.ar  141  TYR141     -0.0198
    144  CD1       37.7160   33.8330   -6.9770 C.ar  141  TYR141     -0.0009
    145  CD2       37.2350   34.4850   -9.2530 C.ar  141  TYR141     -0.0009
    146  CE1       36.5060   33.1890   -6.8850 C.ar  141  TYR141      0.0417
    147  CE2       36.0250   33.8390   -9.1860 C.ar  141  TYR141      0.0417
    148  CZ        35.6360   33.2180   -7.9900 C.ar  141  TYR141      0.1957
    149  OH        34.3990   32.5790   -7.9110 O.3   141  TYR141     -0.2866
    150  N         40.0900   32.1500   -9.8040 N.am  142  THR142     -0.1951
    151  CA        39.7530   31.2010  -10.8830 C.3   142  THR142      0.1897
    152  C         38.5080   30.4820  -10.3420 C.2   142  THR142      0.2313
    153  O         38.4990   30.0760   -9.1770 O.2   142  THR142     -0.2863
    154  CB        40.8530   30.0990  -11.0790 C.3   142  THR142      0.1794
    155  OG1       42.0900   30.6900  -11.4730 O.3   142  THR142     -0.2208
    156  CG2       40.4670   29.0060  -12.1080 C.3   142  THR142      0.0378
@<TRIPOS>BOND
     1   156   154    1
     2   155   154    1
     3   137   135    1
     4   136   134    1
     5   154   151    1
     6   141   140    2
     7   151   152    1
     8   151   150    1
     9    95    96    1
    10   152   153    2
    11   121   122   ar
    12   121   119   ar
    13    96    97    1
    14   122   120   ar
    15   135   134    1
    16   134   131    1
    17   140   150   am
    18   140   139    1
    19   119   117   ar
    20   145   147   ar
    21   145   143   ar
    22   147   148   ar
    23   120   118   ar
    24    97    98    2
    25    97    99   am
    26   131   132    1
    27   131   130    1
    28   139   138    1
    29   139   142    1
    30   138   132   am
    31   132   133    2
    32   117   118   ar
    33   117   116    1
    34   142   143    1
    35   143   144   ar
    36   148   149    1
    37   148   146   ar
    38    99   100    1
    39   130   125   am
    40   116   113    1
    41   144   146   ar
    42   126   125    2
    43     1     2    1
    44    47    46    1
    45   125   124    1
    46   100   101    1
    47   100   103    1
    48   102   101    2
    49     2     3    1
    50   101   104   am
    51   129   123    1
    52   129   128    1
    53   115   114    2
    54   113   114    1
    55   113   112    1
    56   114   123   am
    57   123   124    1
    58   128   127    1
    59   124   127    1
    60    46    48    1
    61    46    45    1
    62     4     3    2
    63   104   105    1
    64    20    18    1
    65     3     5   am
    66    19    18    1
    67    45    42    1
    68   105   106    1
    69   105   108    1
    70    18    17    1
    71     5     6    1
    72   106   107    2
    73    55    53    1
    74   108   109    1
    75   110   109    1
    76    42    41    1
    77    42    43    1
    78    17    14    1
    79     6     7    1
    80     6     9    1
    81     8     7    2
    82   109   111    1
    83     7    13   am
    84    43    49   am
    85    43    44    2
    86    89    90    1
    87    89    86    1
    88    49    50    1
    89    87    88    2
    90    87    86    1
    91    13    14    1
    92    62    64   ar
    93    62    61   ar
    94    64    65   ar
    95    14    15    1
    96    53    50    1
    97    53    54    1
    98    90    91   ar
    99    90    92   ar
   100    11    10    1
   101    91    93   ar
   102    50    51    1
   103    86    85    1
   104    92    94   ar
   105     9    10    1
   106    93    94   ar
   107    61    60    1
   108    61    63   ar
   109    65    63   ar
   110    60    57    1
   111    10    12    1
   112    15    16    2
   113    15    21   am
   114    51    52    2
   115    21    22    1
   116    57    56    1
   117    57    58    1
   118    74    72   ar
   119    24    23    2
   120    58    59    2
   121    58    66   am
   122    84    83   ar
   123    84    82   ar
   124    22    25    1
   125    22    23    1
   126    72    71    1
   127    72    73   ar
   128    83    81   ar
   129    66    67    1
   130    23    26   am
   131    82    80   ar
   132    71    70    1
   133    81    80   ar
   134    67    70    1
   135    67    68    1
   136    26    27    1
   137    80    79    1
   138    27    30    1
   139    27    28    1
   140    30    31    1
   141    68    69    2
   142    32    31   ar
   143    32    34   ar
   144    75    76    1
   145    79    76    1
   146    31    33   ar
   147    28    36   am
   148    28    29    2
   149    76    77    1
   150    34    35   ar
   151    36    37    1
   152    33    35   ar
   153    40    37    1
   154    39    38    2
   155    77    78    2
   156    37    38    1
