@<TRIPOS>MOLECULE
tmp/1yowA00.pdb
 114 107 0 0 0
SMALL
GASTEIGER

@<TRIPOS>ATOM
      1  N         24.4960   48.1880   59.3940 N.3    45  PHE45      -0.1227
      2  CA        25.2110   48.5450   60.6050 C.3    45  PHE45       0.1736
      3  C         25.7770   49.9550   60.4870 C.2    45  PHE45       0.2595
      4  O         25.7930   50.7200   61.4480 O.2    45  PHE45      -0.2718
      5  CB        26.3560   47.5720   60.8900 C.3    45  PHE45       0.0547
      6  CG        27.3040   48.0720   61.9500 C.ar   45  PHE45      -0.0202
      7  CD1       26.8180   48.4620   63.2030 C.ar   45  PHE45      -0.0042
      8  CD2       28.6680   48.2110   61.6810 C.ar   45  PHE45      -0.0042
      9  CE1       27.6630   48.9750   64.1620 C.ar   45  PHE45      -0.0003
     10  CE2       29.5370   48.7270   62.6400 C.ar   45  PHE45      -0.0003
     11  CZ        29.0320   49.1130   63.8860 C.ar   45  PHE45      -0.0000
     12  N         26.2630   50.3000   59.3080 N.am   46  ILE46      -0.1980
     13  CA        26.8050   51.6360   59.1130 C.3    46  ILE46       0.1595
     14  C         25.6760   52.6460   59.1890 C.2    46  ILE46       0.2287
     15  O         25.8150   53.6930   59.8090 O.2    46  ILE46      -0.2864
     16  CB        27.5030   51.7600   57.7490 C.3    46  ILE46       0.0276
     17  CG1       28.7980   50.9310   57.7500 C.3    46  ILE46       0.0022
     18  CG2       27.7590   53.2090   57.4570 C.3    46  ILE46       0.0022
     19  CD1       29.3180   50.5740   56.3940 C.3    46  ILE46       0.0001
     20  N         24.7180   53.4650   62.4440 N.3    49  VAL49      -0.1245
     21  CA        25.6420   54.3700   63.0950 C.3    49  VAL49       0.1561
     22  C         25.3610   55.8220   62.7260 C.2    49  VAL49       0.2260
     23  O         25.2860   56.6790   63.6030 O.2    49  VAL49      -0.2867
     24  CB        27.0850   54.0820   62.7160 C.3    49  VAL49       0.0252
     25  CG1       27.9940   54.9890   63.5270 C.3    49  VAL49       0.0019
     26  CG2       27.4100   52.6330   62.9400 C.3    49  VAL49       0.0019
     27  N         25.5660   58.9000   65.0960 N.3    53  ARG53      -0.1245
     28  CA        26.3050   60.1490   64.9240 C.3    53  ARG53       0.1563
     29  C         25.3520   61.3560   64.9860 C.2    53  ARG53       0.2260
     30  O         25.5980   62.3120   65.7280 O.2    53  ARG53      -0.2867
     31  CB        27.0650   60.1330   63.5810 C.3    53  ARG53       0.0307
     32  CG        28.1830   59.1780   63.5400 C.3    53  ARG53       0.0489
     33  CD        28.8920   59.3780   62.1850 C.3    53  ARG53       0.2205
     34  NE        29.8420   58.2810   62.1990 N.pl3  53  ARG53      -0.0865
     35  CZ        30.3320   57.7440   61.0710 C.cat  53  ARG53       0.5346
     36  NH1       30.1010   58.2080   59.8580 N.pl3  53  ARG53       0.1354
     37  NH2       31.0380   56.6270   61.3130 N.pl3  53  ARG53       0.1354
     38  N         24.3200   61.6900   72.2400 N.3    58  PHE58      -0.1241
     39  CA        25.4100   60.8230   71.8210 C.3    58  PHE58       0.1605
     40  C         26.5290   61.5980   71.1170 C.2    58  PHE58       0.2264
     41  O         27.7250   61.3580   71.3640 O.2    58  PHE58      -0.2867
     42  CB        24.8590   59.7050   70.9200 C.3    58  PHE58       0.0534
     43  CG        25.9310   58.8580   70.2590 C.ar   58  PHE58      -0.0203
     44  CD1       26.7450   58.0010   71.0000 C.ar   58  PHE58      -0.0042
     45  CD2       26.1530   58.9610   68.8950 C.ar   58  PHE58      -0.0042
     46  CE1       27.7520   57.2740   70.3810 C.ar   58  PHE58      -0.0003
     47  CE2       27.1540   58.2370   68.2780 C.ar   58  PHE58      -0.0003
     48  CZ        27.9520   57.3970   69.0220 C.ar   58  PHE58      -0.0000
     49  N         34.8100   60.9940   71.6290 N.3    63  VAL63      -0.1245
     50  CA        34.9610   59.8830   70.7020 C.3    63  VAL63       0.1561
     51  C         35.2910   58.6020   71.4790 C.2    63  VAL63       0.2260
     52  O         34.8640   57.5130   71.0990 O.2    63  VAL63      -0.2867
     53  CB        36.0710   60.1830   69.6580 C.3    63  VAL63       0.0252
     54  CG1       36.2740   58.9880   68.7270 C.3    63  VAL63       0.0019
     55  CG2       35.6930   61.4260   68.8500 C.3    63  VAL63       0.0019
     56  N         31.9630   57.2730   72.5490 N.3    66  GLN66      -0.1231
     57  CA        31.1530   56.8370   71.4160 C.3    66  GLN66       0.1698
     58  C         31.5310   55.4150   71.0090 C.2    66  GLN66       0.2592
     59  O         30.6750   54.5540   70.8300 O.2    66  GLN66      -0.2718
     60  CB        31.3620   57.7740   70.2280 C.3    66  GLN66       0.0381
     61  CG        30.8060   59.1630   70.4400 C.3    66  GLN66       0.0905
     62  CD        30.6260   59.9090   69.1400 C.2    66  GLN66       0.2608
     63  OE1       29.9590   60.9410   69.0940 O.2    66  GLN66      -0.2717
     64  NE2       31.2210   59.3930   68.0750 N.am   66  GLN66      -0.0878
     65  N         32.8310   55.1890   70.8710 N.am   67  MET67      -0.1979
     66  CA        33.3760   53.8970   70.4860 C.3    67  MET67       0.1605
     67  C         32.8620   52.8210   71.4080 C.2    67  MET67       0.2287
     68  O         32.2330   51.8630   70.9850 O.2    67  MET67      -0.2864
     69  CB        34.9100   53.9280   70.5710 C.3    67  MET67       0.0413
     70  CG        35.5940   54.9270   69.6340 C.3    67  MET67       0.0598
     71  SD        35.4350   54.4280   67.8850 S.3    67  MET67      -0.1393
     72  CE        36.6720   53.2600   67.8750 C.3    67  MET67       0.0692
     73  N         28.9310   52.0010   71.2310 N.3    70  LEU70      -0.1231
     74  CA        28.6430   51.1570   70.0780 C.3    70  LEU70       0.1693
     75  C         29.2680   49.7670   70.1930 C.2    70  LEU70       0.2591
     76  O         28.6420   48.7680   69.8420 O.2    70  LEU70      -0.2718
     77  CB        29.1240   51.8300   68.7950 C.3    70  LEU70       0.0284
     78  CG        28.3870   53.1240   68.4380 C.3    70  LEU70       0.0019
     79  CD1       28.9290   53.6890   67.1320 C.3    70  LEU70       0.0001
     80  CD2       26.8970   52.8530   68.3320 C.3    70  LEU70       0.0001
     81  N         30.5010   49.6970   70.6700 N.am   71  GLN71      -0.1979
     82  CA        31.1480   48.4080   70.8230 C.3    71  GLN71       0.1601
     83  C         30.3420   47.4960   71.7250 C.2    71  GLN71       0.2287
     84  O         30.4660   46.2730   71.6500 O.2    71  GLN71      -0.2864
     85  CB        32.5180   48.5770   71.4380 C.3    71  GLN71       0.0394
     86  CG        33.6270   48.6190   70.4320 C.3    71  GLN71       0.0908
     87  CD        34.9790   48.7150   71.1050 C.2    71  GLN71       0.2608
     88  OE1       36.0220   48.5290   70.4710 O.2    71  GLN71      -0.2717
     89  NE2       34.9690   49.0120   72.4040 N.am   71  GLN71      -0.0878
     90  N         32.6670   44.0440   58.5110 N.3   223  LEU223     -0.1245
     91  CA        32.6000   44.9330   59.6650 C.3   223  LEU223      0.1561
     92  C         32.1710   44.2250   60.9370 C.2   223  LEU223      0.2260
     93  O         32.7630   44.4000   62.0090 O.2   223  LEU223     -0.2867
     94  CB        31.5960   46.0380   59.4190 C.3   223  LEU223      0.0270
     95  CG        32.0790   47.2070   58.6140 C.3   223  LEU223      0.0019
     96  CD1       30.9770   48.2650   58.6400 C.3   223  LEU223      0.0001
     97  CD2       33.3750   47.7250   59.2240 C.3   223  LEU223      0.0001
     98  N         34.6780   42.5980   62.6190 N.3   226  GLU226     -0.1231
     99  CA        35.5880   43.5330   63.2370 C.3   226  GLU226      0.1699
    100  C         35.0940   43.9500   64.5960 C.2   226  GLU226      0.2592
    101  O         35.8890   44.3240   65.4610 O.2   226  GLU226     -0.2718
    102  CB        35.7590   44.7620   62.3660 C.3   226  GLU226      0.0402
    103  CG        37.1190   44.8060   61.7130 C.3   226  GLU226      0.1161
    104  CD        37.1300   45.6330   60.4570 C.2   226  GLU226      0.3649
    105  OE1       36.6600   46.7960   60.4750 O.co2 226  GLU226     -0.2457
    106  OE2       37.6210   45.1070   59.4400 O.co2 226  GLU226     -0.2457
    107  N         33.7830   43.8800   64.7870 N.am  227  MET227     -0.1979
    108  CA        33.1870   44.2570   66.0540 C.3   227  MET227      0.1605
    109  C         33.2110   43.0640   67.0080 C.2   227  MET227      0.2287
    110  O         33.3460   43.2210   68.2240 O.2   227  MET227     -0.2864
    111  CB        31.7580   44.6960   65.8040 C.3   227  MET227      0.0413
    112  CG        31.6130   45.8120   64.7820 C.3   227  MET227      0.0598
    113  SD        32.3120   47.3980   65.3210 S.3   227  MET227     -0.1393
    114  CE        31.4130   47.7610   66.8680 C.3   227  MET227      0.0692
@<TRIPOS>BOND
     1    19    17    1
     2    18    16    1
     3    16    17    1
     4    16    13    1
     5    90    91    1
     6    95    96    1
     7    95    97    1
     8    95    94    1
     9    13    14    1
    10    13    12    1
    11    14    15    2
    12    12     3   am
    13     1     2    1
    14    94    91    1
    15   106   104   ar
    16    91    92    1
    17    36    35    1
    18   104   105   ar
    19   104   103    1
    20     3     2    1
    21     3     4    2
    22     2     5    1
    23     5     6    1
    24    92    93    2
    25    35    37    1
    26    35    34    2
    27     8     6   ar
    28     8    10   ar
    29   103   102    1
    30     6     7   ar
    31    33    34    1
    32    33    32    1
    33   102    99    1
    34    20    21    1
    35    98    99    1
    36    10    11   ar
    37    24    26    1
    38    24    21    1
    39    24    25    1
    40    22    21    1
    41    22    23    2
    42     7     9   ar
    43    99   100    1
    44    32    31    1
    45    31    28    1
    46    11     9   ar
    47   100   107   am
    48   100   101    2
    49   112   113    1
    50   112   111    1
    51   107   108    1
    52    28    29    1
    53    28    27    1
    54    29    30    2
    55   113   114    1
    56   111   108    1
    57   108   109    1
    58   109   110    2
    59    79    78    1
    60    72    71    1
    61    71    70    1
    62    64    62   am
    63    47    45   ar
    64    47    48   ar
    65    80    78    1
    66    78    77    1
    67    54    53    1
    68    77    74    1
    69    55    53    1
    70    45    43   ar
    71    48    46   ar
    72    63    62    2
    73    62    61    1
    74    70    69    1
    75    53    50    1
    76    76    75    2
    77    74    75    1
    78    74    73    1
    79    75    81   am
    80    60    61    1
    81    60    57    1
    82    43    42    1
    83    43    44   ar
    84    46    44   ar
    85    86    87    1
    86    86    85    1
    87    88    87    2
    88    66    69    1
    89    66    65    1
    90    66    67    1
    91    81    82    1
    92    50    51    1
    93    50    49    1
    94    82    85    1
    95    82    83    1
    96    59    58    2
    97    65    58   am
    98    42    39    1
    99    68    67    2
   100    58    57    1
   101    52    51    2
   102    87    89   am
   103    40    41    2
   104    40    39    1
   105    57    56    1
   106    84    83    2
   107    39    38    1
