@<TRIPOS>MOLECULE
tmp/1yp0A00.pdb
 156 148 0 0 0
SMALL
GASTEIGER

@<TRIPOS>ATOM
      1  N         61.5670   47.3780   16.9840 N.3    52  PHE52      -0.1227
      2  CA        60.1300   47.5620   16.8800 C.3    52  PHE52       0.1736
      3  C         59.3880   46.3420   17.4250 C.2    52  PHE52       0.2595
      4  O         58.3350   46.4800   18.0400 O.2    52  PHE52      -0.2718
      5  CB        59.7060   47.8480   15.4340 C.3    52  PHE52       0.0547
      6  CG        58.2400   48.1690   15.2990 C.ar   52  PHE52      -0.0202
      7  CD1       57.6730   49.1910   16.0530 C.ar   52  PHE52      -0.0042
      8  CD2       57.4200   47.4230   14.4640 C.ar   52  PHE52      -0.0042
      9  CE1       56.3090   49.4580   15.9810 C.ar   52  PHE52      -0.0003
     10  CE2       56.0520   47.6830   14.3850 C.ar   52  PHE52      -0.0003
     11  CZ        55.4990   48.7020   15.1480 C.ar   52  PHE52      -0.0000
     12  N         59.9320   45.1460   17.2130 N.am   53  ILE53      -0.1980
     13  CA        59.2840   43.9510   17.7390 C.3    53  ILE53       0.1595
     14  C         59.2290   44.0540   19.2660 C.2    53  ILE53       0.2287
     15  O         58.2270   43.6940   19.8810 O.2    53  ILE53      -0.2864
     16  CB        60.0300   42.6760   17.2940 C.3    53  ILE53       0.0276
     17  CG1       59.8070   42.4690   15.7930 C.3    53  ILE53       0.0022
     18  CG2       59.5310   41.4590   18.0790 C.3    53  ILE53       0.0022
     19  CD1       60.6270   41.3370   15.1770 C.3    53  ILE53       0.0001
     20  N         56.4460   46.4010   20.1120 N.3    56  VAL56      -0.1231
     21  CA        55.1370   45.7870   19.9260 C.3    56  VAL56       0.1692
     22  C         54.8280   44.8960   21.1270 C.2    56  VAL56       0.2592
     23  O         53.6930   44.8500   21.5950 O.2    56  VAL56      -0.2718
     24  CB        55.0840   44.9540   18.6230 C.3    56  VAL56       0.0266
     25  CG1       53.7590   44.1910   18.5330 C.3    56  VAL56       0.0020
     26  CG2       55.2140   45.8790   17.4240 C.3    56  VAL56       0.0020
     27  N         55.8450   44.2030   21.6340 N.am   57  ASP57      -0.1974
     28  CA        55.6450   43.3440   22.7930 C.3    57  ASP57       0.1709
     29  C         55.2590   44.1790   24.0090 C.2    57  ASP57       0.2293
     30  O         54.4130   43.7740   24.8060 O.2    57  ASP57      -0.2864
     31  CB        56.9010   42.5210   23.0820 C.3    57  ASP57       0.1436
     32  CG        57.1030   41.4020   22.0770 C.2    57  ASP57       0.3671
     33  OD1       56.0890   40.8410   21.6040 O.co2  57  ASP57      -0.2456
     34  OD2       58.2680   41.0720   21.7710 O.co2  57  ASP57      -0.2456
     35  N         51.5920   45.2450   23.6190 N.3    60  ARG60      -0.1245
     36  CA        50.6930   44.1320   23.8930 C.3    60  ARG60       0.1563
     37  C         50.4230   43.9340   25.3840 C.2    60  ARG60       0.2260
     38  O         49.3500   43.4650   25.7600 O.2    60  ARG60      -0.2867
     39  CB        51.2620   42.8400   23.3060 C.3    60  ARG60       0.0307
     40  CG        51.3380   42.8250   21.7940 C.3    60  ARG60       0.0489
     41  CD        51.6640   41.4260   21.3130 C.3    60  ARG60       0.2205
     42  NE        50.5740   40.5070   21.6250 N.pl3  60  ARG60      -0.0865
     43  CZ        50.7140   39.1930   21.7590 C.cat  60  ARG60       0.5346
     44  NH1       51.9070   38.6310   21.6110 N.pl3  60  ARG60       0.1354
     45  NH2       49.6590   38.4390   22.0400 N.pl3  60  ARG60       0.1354
     46  N         45.5630   48.8130   25.9390 N.3    65  PHE65      -0.1241
     47  CA        45.9210   48.2180   24.6570 C.3    65  PHE65       0.1605
     48  C         45.6290   46.7200   24.6520 C.2    65  PHE65       0.2264
     49  O         45.1010   46.1860   23.6740 O.2    65  PHE65      -0.2867
     50  CB        47.4020   48.4790   24.3490 C.3    65  PHE65       0.0534
     51  CG        47.7980   48.1700   22.9280 C.ar   65  PHE65      -0.0203
     52  CD1       48.2030   46.8900   22.5580 C.ar   65  PHE65      -0.0042
     53  CD2       47.7810   49.1700   21.9590 C.ar   65  PHE65      -0.0042
     54  CE1       48.5950   46.6110   21.2360 C.ar   65  PHE65      -0.0003
     55  CE2       48.1650   48.9020   20.6460 C.ar   65  PHE65      -0.0003
     56  CZ        48.5740   47.6230   20.2830 C.ar   65  PHE65      -0.0000
     57  N         42.4890   42.8700   17.8700 N.3    70  VAL70      -0.1245
     58  CA        43.6560   42.9830   17.0090 C.3    70  VAL70       0.1561
     59  C         43.5410   44.0990   15.9700 C.2    70  VAL70       0.2260
     60  O         44.5180   44.7970   15.7010 O.2    70  VAL70      -0.2867
     61  CB        43.9590   41.6370   16.3060 C.3    70  VAL70       0.0252
     62  CG1       45.1770   41.7740   15.4070 C.3    70  VAL70       0.0019
     63  CG2       44.2100   40.5660   17.3470 C.3    70  VAL70       0.0019
     64  N         44.3540   47.2880   17.6140 N.3    73  GLN73      -0.1231
     65  CA        45.7670   47.2760   17.9730 C.3    73  GLN73       0.1698
     66  C         46.6340   47.5780   16.7610 C.2    73  GLN73       0.2592
     67  O         47.5930   48.3480   16.8550 O.2    73  GLN73      -0.2718
     68  CB        46.1730   45.9190   18.5470 C.3    73  GLN73       0.0381
     69  CG        45.5120   45.5720   19.8600 C.3    73  GLN73       0.0905
     70  CD        46.0740   44.3030   20.4640 C.2    73  GLN73       0.2608
     71  OE1       46.5060   43.4020   19.7440 O.2    73  GLN73      -0.2717
     72  NE2       46.0590   44.2160   21.7880 N.am   73  GLN73      -0.0878
     73  N         46.3080   46.9700   15.6210 N.am   74  MET74      -0.1979
     74  CA        47.0970   47.2060   14.4150 C.3    74  MET74       0.1605
     75  C         46.9700   48.6440   13.9270 C.2    74  MET74       0.2287
     76  O         47.9540   49.2460   13.5030 O.2    74  MET74      -0.2864
     77  CB        46.6970   46.2340   13.3000 C.3    74  MET74       0.0413
     78  CG        47.0060   44.7840   13.6240 C.3    74  MET74       0.0598
     79  SD        47.0060   43.7170   12.1720 S.3    74  MET74      -0.1393
     80  CE        45.2520   43.6230   11.8330 C.3    74  MET74       0.0692
     81  N         49.1730   50.9090   16.1190 N.3    77  LEU77      -0.1231
     82  CA        50.5960   50.7610   15.8090 C.3    77  LEU77       0.1693
     83  C         50.9680   51.2760   14.4190 C.2    77  LEU77       0.2591
     84  O         52.0920   51.7280   14.1990 O.2    77  LEU77      -0.2718
     85  CB        51.0240   49.2980   15.9570 C.3    77  LEU77       0.0284
     86  CG        51.0790   48.8100   17.4050 C.3    77  LEU77       0.0019
     87  CD1       51.2180   47.2950   17.4210 C.3    77  LEU77       0.0001
     88  CD2       52.2390   49.4760   18.1490 C.3    77  LEU77       0.0001
     89  N         50.0390   51.2000   13.4740 N.am   78  GLN78      -0.1979
     90  CA        50.3110   51.6900   12.1280 C.3    78  GLN78       0.1601
     91  C         50.4240   53.2100   12.1210 C.2    78  GLN78       0.2287
     92  O         51.0620   53.7940   11.2480 O.2    78  GLN78      -0.2864
     93  CB        49.2080   51.2420   11.1680 C.3    78  GLN78       0.0394
     94  CG        49.2880   49.7780   10.7870 C.3    78  GLN78       0.0908
     95  CD        48.1100   49.3330    9.9430 C.2    78  GLN78       0.2608
     96  OE1       48.1060   48.2300    9.3950 O.2    78  GLN78      -0.2717
     97  NE2       47.0970   50.1860    9.8430 N.am   78  GLN78      -0.0878
     98  N         61.5210   41.4000    3.1570 N.3   228  ASN228     -0.1225
     99  CA        60.7170   41.0930    4.3350 C.3   228  ASN228      0.1785
    100  C         61.0310   41.9880    5.5260 C.2   228  ASN228      0.2597
    101  O         60.8660   41.5840    6.6760 O.2   228  ASN228     -0.2718
    102  CB        60.8960   39.6300    4.7440 C.3   228  ASN228      0.1169
    103  CG        60.5280   38.6700    3.6350 C.2   228  ASN228      0.2627
    104  OD1       59.7250   38.9940    2.7600 O.2   228  ASN228     -0.2716
    105  ND2       61.1030   37.4740    3.6730 N.am  228  ASN228     -0.0877
    106  N         61.4900   43.2030    5.2510 N.am  229  ASN229     -0.1960
    107  CA        61.8040   44.1450    6.3170 C.3   229  ASN229      0.1819
    108  C         60.4960   44.6200    6.9600 C.2   229  ASN229      0.2621
    109  O         59.5640   45.0340    6.2670 O.2   229  ASN229     -0.2715
    110  CB        62.5940   45.3240    5.7420 C.3   229  ASN229      0.1195
    111  CG        62.9200   46.3710    6.7820 C.2   229  ASN229      0.2630
    112  OD1       62.1400   47.2930    7.0140 O.2   229  ASN229     -0.2716
    113  ND2       64.0720   46.2280    7.4220 N.am  229  ASN229     -0.0877
    114  N         60.4290   44.5480    8.2870 N.am  230  LEU230     -0.1977
    115  CA        59.2270   44.9420    9.0140 C.3   230  LEU230      0.1596
    116  C         58.9140   46.4320    8.9220 C.2   230  LEU230      0.2287
    117  O         57.7470   46.8130    8.8150 O.2   230  LEU230     -0.2864
    118  CB        59.3400   44.5280   10.4880 C.3   230  LEU230      0.0297
    119  CG        58.2040   44.9230   11.4400 C.3   230  LEU230      0.0022
    120  CD1       56.8530   44.4740   10.8860 C.3   230  LEU230      0.0001
    121  CD2       58.4580   44.2930   12.8100 C.3   230  LEU230      0.0001
    122  N         57.1940   47.0680    5.8330 N.3   233  GLU233     -0.1231
    123  CA        55.8100   46.5990    5.8860 C.3   233  GLU233      0.1699
    124  C         54.9710   47.6820    6.5590 C.2   233  GLU233      0.2592
    125  O         53.8670   47.9880    6.1150 O.2   233  GLU233     -0.2718
    126  CB        55.6850   45.3010    6.6880 C.3   233  GLU233      0.0402
    127  CG        54.2850   44.6840    6.6040 C.3   233  GLU233      0.1161
    128  CD        54.0950   43.4850    7.5160 C.2   233  GLU233      0.3649
    129  OE1       53.6910   43.6770    8.6850 O.co2 233  GLU233     -0.2457
    130  OE2       54.3550   42.3490    7.0610 O.co2 233  GLU233     -0.2457
    131  N         55.4940   48.2590    7.6400 N.am  234  MET234     -0.1979
    132  CA        54.7760   49.3140    8.3470 C.3   234  MET234      0.1605
    133  C         54.6250   50.5500    7.4550 C.2   234  MET234      0.2287
    134  O         53.5860   51.2080    7.4650 O.2   234  MET234     -0.2864
    135  CB        55.5090   49.6970    9.6400 C.3   234  MET234      0.0413
    136  CG        55.6190   48.5670   10.6750 C.3   234  MET234      0.0598
    137  SD        54.0490   47.7980   11.1380 S.3   234  MET234     -0.1393
    138  CE        53.1910   49.1880   11.8730 C.3   234  MET234      0.0692
    139  N         49.5140   48.3960    4.8310 N.3   238  LYS238     -0.1231
    140  CA        48.5010   47.6200    4.1260 C.3   238  LYS238      0.1693
    141  C         48.0350   46.3890    4.8940 C.2   238  LYS238      0.2591
    142  O         47.4430   45.4790    4.3130 O.2   238  LYS238     -0.2718
    143  CB        49.0330   47.1910    2.7570 C.3   238  LYS238      0.0285
    144  CG        49.3220   48.3480    1.8150 C.3   238  LYS238      0.0035
    145  CD        49.8880   47.8540    0.4920 C.3   238  LYS238      0.0206
    146  CE        50.1760   49.0100   -0.4560 C.3   238  LYS238      0.1093
    147  NZ        48.9390   49.7570   -0.8240 N.3   238  LYS238     -0.1314
    148  N         48.2930   46.3620    6.1960 N.am  239  GLN239     -0.1979
    149  CA        47.8900   45.2250    7.0160 C.3   239  GLN239      0.1601
    150  C         46.4680   45.4120    7.5340 C.2   239  GLN239      0.2287
    151  O         45.9190   46.5220    7.3620 O.2   239  GLN239     -0.2864
    152  CB        48.8500   45.0640    8.1970 C.3   239  GLN239      0.0394
    153  CG        50.3120   45.1460    7.8040 C.3   239  GLN239      0.0908
    154  CD        51.0500   46.2120    8.5820 C.2   239  GLN239      0.2608
    155  OE1       50.5430   47.3180    8.7680 O.2   239  GLN239     -0.2717
    156  NE2       52.2570   45.8930    9.0310 N.am  239  GLN239     -0.0878
@<TRIPOS>BOND
     1   147   146    1
     2   146   145    1
     3   145   144    1
     4   144   143    1
     5   143   140    1
     6   104   103    2
     7    98    99    1
     8   103   105   am
     9   103   102    1
    10   140   139    1
    11   140   141    1
    12   142   141    2
    13    99   102    1
    14    99   100    1
    15   141   148   am
    16   106   100   am
    17   106   107    1
    18   100   101    2
    19   110   107    1
    20   110   111    1
    21   122   123    1
    22   123   124    1
    23   123   126    1
    24   125   124    2
    25   148   149    1
    26   109   108    2
    27   107   108    1
    28   124   131   am
    29   127   126    1
    30   127   128    1
    31   111   112    2
    32   111   113   am
    33   108   114   am
    34   149   150    1
    35   149   152    1
    36   130   128   ar
    37   151   150    2
    38   133   134    2
    39   133   132    1
    40   128   129   ar
    41   131   132    1
    42   153   152    1
    43   153   154    1
    44   114   115    1
    45   132   135    1
    46   154   155    2
    47   154   156   am
    48   117   116    2
    49   116   115    1
    50   115   118    1
    51    96    95    2
    52   135   136    1
    53    97    95   am
    54    95    94    1
    55   118   119    1
    56   136   137    1
    57    94    93    1
    58   120   119    1
    59   137   138    1
    60    93    90    1
    61    92    91    2
    62   119   121    1
    63    80    79    1
    64    91    90    1
    65    90    89    1
    66    79    78    1
    67    77    78    1
    68    77    74    1
    69    89    83   am
    70    76    75    2
    71    75    74    1
    72    84    83    2
    73    10     8   ar
    74    10    11   ar
    75    74    73    1
    76    83    82    1
    77     8     6   ar
    78    11     9   ar
    79    19    17    1
    80     6     5    1
    81     6     7   ar
    82    62    61    1
    83     5     2    1
    84    73    66   am
    85    60    59    2
    86    17    16    1
    87    82    85    1
    88    82    81    1
    89    85    86    1
    90    59    58    1
    91     9     7   ar
    92    61    58    1
    93    61    63    1
    94    66    67    2
    95    66    65    1
    96     2     1    1
    97     2     3    1
    98    58    57    1
    99    12     3   am
   100    12    13    1
   101    16    13    1
   102    16    18    1
   103    86    87    1
   104    86    88    1
   105    26    24    1
   106     3     4    2
   107    64    65    1
   108    13    14    1
   109    65    68    1
   110    25    24    1
   111    68    69    1
   112    24    21    1
   113    14    15    2
   114    71    70    2
   115    69    70    1
   116    21    20    1
   117    21    22    1
   118    56    55   ar
   119    56    54   ar
   120    70    72   am
   121    55    53   ar
   122    22    23    2
   123    22    27   am
   124    54    52   ar
   125    41    42    1
   126    41    40    1
   127    33    32   ar
   128    44    43    1
   129    42    43    2
   130    27    28    1
   131    43    45    1
   132    34    32   ar
   133    40    39    1
   134    53    51   ar
   135    32    31    1
   136    52    51   ar
   137    28    31    1
   138    28    29    1
   139    51    50    1
   140    39    36    1
   141    35    36    1
   142    49    48    2
   143    36    37    1
   144    29    30    2
   145    50    47    1
   146    48    47    1
   147    47    46    1
   148    37    38    2
