@<TRIPOS>MOLECULE
tmp/1yp1A00.pdb
 129 126 0 0 0
SMALL
GASTEIGER

@<TRIPOS>ATOM
      1  N         19.0390  -48.5270  -82.1240 N.3   105  ALA105     -0.1231
      2  CA        18.1740  -47.7230  -82.9730 C.3   105  ALA105      0.1694
      3  C         17.6840  -48.4780  -84.2090 C.2   105  ALA105      0.2592
      4  O         17.0830  -47.8880  -85.1040 O.2   105  ALA105     -0.2718
      5  CB        18.9200  -46.4400  -83.3930 C.3   105  ALA105      0.0304
      6  N         17.9620  -49.7770  -84.2590 N.am  106  VAL106     -0.1966
      7  CA        17.5400  -50.6050  -85.3840 C.3   106  VAL106      0.1727
      8  C         16.0190  -50.7460  -85.3970 C.2   106  VAL106      0.2616
      9  O         15.4290  -51.1370  -84.3940 O.2   106  VAL106     -0.2715
     10  CB        18.1840  -52.0220  -85.2880 C.3   106  VAL106      0.0290
     11  CG1       17.6640  -52.8980  -86.3990 C.3   106  VAL106      0.0023
     12  CG2       19.6840  -51.9300  -85.4140 C.3   106  VAL106      0.0023
     13  N         15.3780  -50.4240  -86.5250 N.am  107  VAL107     -0.1963
     14  CA        13.9190  -50.5650  -86.6020 C.3   107  VAL107      0.1727
     15  C         13.5000  -51.5170  -87.7120 C.2   107  VAL107      0.2617
     16  O         12.3080  -51.6640  -87.9950 O.2   107  VAL107     -0.2715
     17  CB        13.2180  -49.2050  -86.7930 C.3   107  VAL107      0.0290
     18  CG1       13.4760  -48.3220  -85.5530 C.3   107  VAL107      0.0023
     19  CG2       13.7040  -48.5340  -88.0520 C.3   107  VAL107      0.0023
     20  N         14.4990  -52.1210  -88.3500 N.am  108  GLY108     -0.1940
     21  CA        14.2750  -53.0820  -89.4220 C.3   108  GLY108      0.2014
     22  C         15.5590  -53.8260  -89.7880 C.2   108  GLY108      0.2638
     23  O         16.6640  -53.2980  -89.6000 O.2   108  GLY108     -0.2714
     24  N         15.4230  -55.0520  -90.2990 N.am  109  LEU109     -0.1977
     25  CA        16.5800  -55.8290  -90.7060 C.3   109  LEU109      0.1596
     26  C         16.1800  -56.8110  -91.8020 C.2   109  LEU109      0.2287
     27  O         15.0330  -57.3090  -91.8260 O.2   109  LEU109     -0.2864
     28  CB        17.1640  -56.5730  -89.4930 C.3   109  LEU109      0.0297
     29  CG        18.6510  -56.9240  -89.4850 C.3   109  LEU109      0.0022
     30  CD1       19.4980  -55.6340  -89.4140 C.3   109  LEU109      0.0001
     31  CD2       18.9490  -57.7900  -88.2530 C.3   109  LEU109      0.0001
     32  N          7.5080  -48.9660  -85.5310 N.3   128  PHE128     -0.1241
     33  CA         8.0280  -47.8130  -84.8120 C.3   128  PHE128      0.1605
     34  C          7.4240  -46.4320  -85.0200 C.2   128  PHE128      0.2264
     35  O          7.7740  -45.5120  -84.3020 O.2   128  PHE128     -0.2867
     36  CB         9.5160  -47.7470  -85.0930 C.3   128  PHE128      0.0534
     37  CG         9.8210  -47.2970  -86.4670 C.ar  128  PHE128     -0.0203
     38  CD1        9.9010  -45.9580  -86.7610 C.ar  128  PHE128     -0.0042
     39  CD2        9.9710  -48.2060  -87.4820 C.ar  128  PHE128     -0.0042
     40  CE1       10.1210  -45.5470  -87.9990 C.ar  128  PHE128     -0.0003
     41  CE2       10.1900  -47.7810  -88.7220 C.ar  128  PHE128     -0.0003
     42  CZ        10.2630  -46.4640  -88.9820 C.ar  128  PHE128     -0.0000
     43  N          8.2960  -46.6990  -96.0570 N.3   137  VAL137     -0.1231
     44  CA         9.6920  -46.4760  -96.4300 C.3   137  VAL137      0.1692
     45  C         10.5660  -47.4930  -95.6910 C.2   137  VAL137      0.2591
     46  O         11.5070  -48.0300  -96.2540 O.2   137  VAL137     -0.2718
     47  CB        10.1240  -45.0290  -96.0920 C.3   137  VAL137      0.0266
     48  CG1       11.6450  -44.9060  -96.1770 C.3   137  VAL137      0.0020
     49  CG2        9.4930  -44.0510  -97.0930 C.3   137  VAL137      0.0020
     50  N         10.2350  -47.7740  -94.4320 N.am  138  VAL138     -0.1980
     51  CA        11.0050  -48.7390  -93.6410 C.3   138  VAL138      0.1595
     52  C         10.8920  -50.1390  -94.2480 C.2   138  VAL138      0.2287
     53  O         11.8910  -50.8670  -94.3850 O.2   138  VAL138     -0.2864
     54  CB        10.4990  -48.7700  -92.1920 C.3   138  VAL138      0.0276
     55  CG1       11.2830  -49.8120  -91.3720 C.3   138  VAL138      0.0022
     56  CG2       10.6520  -47.4180  -91.6070 C.3   138  VAL138      0.0022
     57  N         12.8010  -50.1940  -97.5420 N.3   141  HIS141     -0.1226
     58  CA        14.2630  -50.1900  -97.3670 C.3   141  HIS141      0.1752
     59  C         14.7280  -51.6430  -97.1800 C.2   141  HIS141      0.2595
     60  O         15.7170  -52.0850  -97.7840 O.2   141  HIS141     -0.2718
     61  CB        14.6290  -49.3870  -96.1150 C.3   141  HIS141      0.0759
     62  CG        16.0960  -49.3270  -95.8340 C.ar  141  HIS141      0.0818
     63  ND1       16.8750  -48.2540  -96.2080 N.ar  141  HIS141     -0.2268
     64  CD2       16.9250  -50.1870  -95.1870 C.ar  141  HIS141      0.1154
     65  CE1       18.1170  -48.4500  -95.8020 C.ar  141  HIS141      0.1986
     66  NE2       18.1740  -49.6140  -95.1840 N.ar  141  HIS141     -0.2212
     67  N         14.0140  -52.3890  -96.3460 N.am  142  GLU142     -0.1979
     68  CA        14.3740  -53.7950  -96.1310 C.3   142  GLU142      0.1602
     69  C         14.1760  -54.6460  -97.3950 C.2   142  GLU142      0.2287
     70  O         15.0040  -55.4960  -97.7040 O.2   142  GLU142     -0.2864
     71  CB        13.5530  -54.4030  -94.9910 C.3   142  GLU142      0.0415
     72  CG        13.7720  -53.7480  -93.6110 C.3   142  GLU142      0.1163
     73  CD        15.2460  -53.3970  -93.2950 C.2   142  GLU142      0.3649
     74  OE1       16.1660  -54.1370  -93.6840 O.co2 142  GLU142     -0.2457
     75  OE2       15.4890  -52.3730  -92.6270 O.co2 142  GLU142     -0.2457
     76  N         16.9940  -54.0160  -99.7550 N.3   145  HIS145     -0.1241
     77  CA        18.2130  -54.7750  -99.4490 C.3   145  HIS145      0.1621
     78  C         18.0750  -56.1940 -100.0020 C.2   145  HIS145      0.2264
     79  O         19.0340  -56.7420 -100.5460 O.2   145  HIS145     -0.2867
     80  CB        18.4440  -54.8550  -97.9530 C.3   145  HIS145      0.0745
     81  CG        19.1410  -53.6580  -97.3960 C.ar  145  HIS145      0.0817
     82  ND1       20.2010  -53.0530  -98.0390 N.ar  145  HIS145     -0.2268
     83  CD2       18.9600  -52.9770  -96.2420 C.ar  145  HIS145      0.1154
     84  CE1       20.6490  -52.0540  -97.2970 C.ar  145  HIS145      0.1986
     85  NE2       19.9130  -51.9880  -96.2030 N.ar  145  HIS145     -0.2212
     86  N         23.2970  -49.2900  -99.1820 N.3   151  HIS151     -0.1241
     87  CA        22.9170  -47.9680  -98.7100 C.3   151  HIS151      0.1621
     88  C         23.3770  -46.8910  -99.6450 C.2   151  HIS151      0.2264
     89  O         24.3620  -47.0520 -100.3580 O.2   151  HIS151     -0.2867
     90  CB        23.5030  -47.7080  -97.3260 C.3   151  HIS151      0.0745
     91  CG        22.8460  -48.5120  -96.2580 C.ar  151  HIS151      0.0817
     92  ND1       23.4990  -48.9230  -95.1160 N.ar  151  HIS151     -0.2268
     93  CD2       21.5750  -48.9650  -96.1540 C.ar  151  HIS151      0.1154
     94  CE1       22.6530  -49.5930  -94.3490 C.ar  151  HIS151      0.1986
     95  NE2       21.4820  -49.6300  -94.9580 N.ar  151  HIS151     -0.2212
     96  N         14.9380  -43.8300 -100.2930 N.3   163  ILE163     -0.1245
     97  CA        14.6890  -45.1030  -99.6130 C.3   163  ILE163      0.1561
     98  C         15.9010  -45.7500  -98.9610 C.2   163  ILE163      0.2260
     99  O         15.8370  -46.1150  -97.7770 O.2   163  ILE163     -0.2867
    100  CB        14.0370  -46.1750 -100.5820 C.3   163  ILE163      0.0252
    101  CG1       12.7690  -45.6110 -101.2200 C.3   163  ILE163      0.0019
    102  CG2       13.7110  -47.4850  -99.7920 C.3   163  ILE163      0.0019
    103  CD1       11.6760  -45.2150 -100.2190 C.3   163  ILE163      0.0001
    104  N         18.7300  -44.6540  -97.7840 N.3   165  ALA165     -0.1231
    105  CA        19.5810  -43.8760  -96.8790 C.3   165  ALA165      0.1679
    106  C         19.7580  -44.7930  -95.6660 C.2   165  ALA165      0.2434
    107  O         18.8080  -45.4480  -95.2320 O.2   165  ALA165     -0.2733
    108  CB        18.8790  -42.6090  -96.4680 C.3   165  ALA165      0.0304
    109  N         20.9750  -44.8530  -95.1030 N.am  166  PRO166     -0.2718
    110  CA        21.3260  -45.6880  -93.9400 C.3   166  PRO166      0.1535
    111  C         20.3960  -45.4970  -92.7300 C.2   166  PRO166      0.2599
    112  O         20.1020  -46.4410  -91.9860 O.2   166  PRO166     -0.2715
    113  CB        22.7650  -45.2580  -93.6320 C.3   166  PRO166      0.0310
    114  CG        23.2850  -44.8430  -94.9470 C.3   166  PRO166      0.0237
    115  CD        22.1360  -44.0510  -95.5330 C.3   166  PRO166      0.0939
    116  N         19.9480  -44.2660  -92.5360 N.am  167  SER167     -0.1936
    117  CA        19.0440  -43.9630  -91.4410 C.3   167  SER167      0.2055
    118  C         17.7820  -43.3980  -92.0480 C.2   167  SER167      0.2642
    119  O         17.8280  -42.6650  -93.0280 O.2   167  SER167     -0.2714
    120  CB        19.6540  -42.9300  -90.4940 C.3   167  SER167      0.2130
    121  OG        20.6800  -43.5090  -89.6820 O.3   167  SER167     -0.2179
    122  N         16.6510  -43.7590  -91.4610 N.am  168  LEU168     -0.1977
    123  CA        15.3710  -43.2560  -91.9390 C.3   168  LEU168      0.1596
    124  C         15.2910  -41.7490  -91.6820 C.2   168  LEU168      0.2287
    125  O         15.5090  -41.2810  -90.5480 O.2   168  LEU168     -0.2864
    126  CB        14.2400  -43.9580  -91.2010 C.3   168  LEU168      0.0297
    127  CG        12.8360  -43.4850  -91.5490 C.3   168  LEU168      0.0022
    128  CD1       12.5450  -43.7540  -92.9990 C.3   168  LEU168      0.0001
    129  CD2       11.8440  -44.2140  -90.6460 C.3   168  LEU168      0.0001
@<TRIPOS>BOND
     1   101   100    1
     2   101   103    1
     3   100   102    1
     4   100    97    1
     5    79    78    2
     6    89    88    2
     7    96    97    1
     8    78    77    1
     9    76    77    1
    10    88    87    1
    11    97    98    1
    12    77    80    1
    13    86    87    1
    14    98    99    2
    15    87    90    1
    16    82    81   ar
    17    82    84   ar
    18    80    81    1
    19    60    59    2
    20   104   105    1
    21    70    69    2
    22    57    58    1
    23    81    83   ar
    24    69    68    1
    25    58    59    1
    26    58    61    1
    27    90    91    1
    28    84    85   ar
    29    59    67   am
    30    49    47    1
    31   105   108    1
    32   105   106    1
    33    44    47    1
    34    44    43    1
    35    44    45    1
    36    67    68    1
    37    91    93   ar
    38    91    92   ar
    39    46    45    2
    40    83    85   ar
    41    63    62   ar
    42    63    65   ar
    43    48    47    1
    44    93    95   ar
    45    68    71    1
    46    61    62    1
    47    62    64   ar
    48    65    66   ar
    49    45    50   am
    50   106   107    2
    51   106   109   am
    52   115   109    1
    53   115   114    1
    54    64    66   ar
    55    92    94   ar
    56   109   110    1
    57    71    72    1
    58    95    94   ar
    59   114   113    1
    60    50    51    1
    61    53    52    2
    62    52    51    1
    63   110   113    1
    64   110   111    1
    65    74    73   ar
    66    51    54    1
    67    72    73    1
    68    73    75   ar
    69   119   118    2
    70   128   127    1
    71   111   116   am
    72   111   112    2
    73   116   117    1
    74    54    56    1
    75    54    55    1
    76   118   122   am
    77   118   117    1
    78   123   124    1
    79   123   122    1
    80   123   126    1
    81    27    26    2
    82    26    25    1
    83   124   125    2
    84   127   126    1
    85   127   129    1
    86   117   120    1
    87    25    24    1
    88    25    28    1
    89   120   121    1
    90    24    22   am
    91    22    23    2
    92    22    21    1
    93    28    29    1
    94    29    30    1
    95    29    31    1
    96    21    20    1
    97    42    41   ar
    98    42    40   ar
    99    41    39   ar
   100    20    15   am
   101    19    17    1
   102    40    38   ar
   103    16    15    2
   104    15    14    1
   105    39    37   ar
   106    17    14    1
   107    17    18    1
   108    38    37   ar
   109    14    13    1
   110    13     8   am
   111    37    36    1
   112    11    10    1
   113    32    33    1
   114    12    10    1
   115     8     7    1
   116     8     9    2
   117     7    10    1
   118     7     6    1
   119     4     3    2
   120    36    33    1
   121    34    33    1
   122    34    35    2
   123     6     3   am
   124     3     2    1
   125     5     2    1
   126     2     1    1
