@<TRIPOS>MOLECULE
tmp/1yp3C00.pdb
 192 185 0 0 0
SMALL
GASTEIGER

@<TRIPOS>ATOM
      1  N          2.7100   -7.8930   60.3300 N.3    17  LEU17      -0.1231
      2  CA         1.3440   -7.4310   60.4490 C.3    17  LEU17       0.1693
      3  C          0.9860   -7.2990   61.9250 C.2    17  LEU17       0.2593
      4  O          0.4600   -8.2330   62.5290 O.2    17  LEU17      -0.2718
      5  CB         0.4210   -8.4250   59.7510 C.3    17  LEU17       0.0284
      6  CG         0.7720   -8.5970   58.2670 C.3    17  LEU17       0.0019
      7  CD1        0.3600   -9.9830   57.7980 C.3    17  LEU17       0.0001
      8  CD2        0.1110   -7.5010   57.4440 C.3    17  LEU17       0.0001
      9  N          1.2830   -6.1300   62.4920 N.am   18  GLY18      -0.1942
     10  CA         1.0170   -5.8690   63.8930 C.3    18  GLY18       0.2014
     11  C         -0.4390   -5.9100   64.3010 C.2    18  GLY18       0.2639
     12  O         -0.7550   -6.2730   65.4290 O.2    18  GLY18      -0.2714
     13  N         -1.3430   -5.5200   63.4140 N.am   19  GLY19      -0.1939
     14  CA        -2.7430   -5.5690   63.7810 C.3    19  GLY19       0.2014
     15  C         -3.6270   -4.5140   63.1530 C.2    19  GLY19       0.2639
     16  O         -3.1630   -3.5420   62.5660 O.2    19  GLY19      -0.2714
     17  N         -4.9260   -4.7320   63.2630 N.am   20  GLY20      -0.1954
     18  CA        -5.8720   -3.7810   62.7380 C.3    20  GLY20       0.1869
     19  C         -6.3000   -2.9520   63.9260 C.2    20  GLY20       0.2309
     20  O         -5.4540   -2.4160   64.6340 O.2    20  GLY20      -0.2863
     21  N         -1.6190   -2.8220   68.6820 N.3    34  LYS34      -0.1245
     22  CA        -1.3720   -4.2060   69.0590 C.3    34  LYS34       0.1561
     23  C          0.1010   -4.5860   69.2580 C.2    34  LYS34       0.2260
     24  O          0.4640   -5.1950   70.2680 O.2    34  LYS34      -0.2867
     25  CB        -2.0000   -5.1410   68.0240 C.3    34  LYS34       0.0271
     26  CG        -1.8350   -6.6110   68.3590 C.3    34  LYS34       0.0035
     27  CD        -3.1560   -7.2500   68.7410 C.3    34  LYS34       0.0206
     28  CE        -3.8440   -7.8190   67.5210 C.3    34  LYS34       0.1093
     29  NZ        -2.9690   -8.8360   66.8850 N.3    34  LYS34      -0.1314
     30  N          3.6430   -3.2240   60.0100 N.3    64  LEU64      -0.1231
     31  CA         2.3530   -2.6890   59.5970 C.3    64  LEU64       0.1693
     32  C          1.4050   -2.6700   60.7720 C.2    64  LEU64       0.2593
     33  O          1.4150   -3.5840   61.5820 O.2    64  LEU64      -0.2718
     34  CB         1.7440   -3.5670   58.4990 C.3    64  LEU64       0.0284
     35  CG         2.1030   -3.3550   57.0260 C.3    64  LEU64       0.0019
     36  CD1        3.5190   -2.8480   56.8810 C.3    64  LEU64       0.0001
     37  CD2        1.9270   -4.6620   56.2940 C.3    64  LEU64       0.0001
     38  N          0.5780   -1.6370   60.8640 N.am   65  THR65      -0.1939
     39  CA        -0.4080   -1.5480   61.9430 C.3    65  THR65       0.2028
     40  C         -1.4440   -0.4730   61.6030 C.2    65  THR65       0.2642
     41  O         -1.0930    0.6630   61.2970 O.2    65  THR65      -0.2714
     42  CB         0.2710   -1.2370   63.2980 C.3    65  THR65       0.1808
     43  OG1       -0.7310   -1.1300   64.3230 O.3    65  THR65      -0.2208
     44  CG2        1.0830    0.0490   63.2140 C.3    65  THR65       0.0379
     45  N         -2.7230   -0.8270   61.6560 N.am   66  GLN66      -0.1976
     46  CA        -3.7530    0.1360   61.3000 C.3    66  GLN66       0.1601
     47  C         -3.5680    1.4890   61.9780 C.2    66  GLN66       0.2287
     48  O         -3.6960    2.5200   61.3310 O.2    66  GLN66      -0.2864
     49  CB        -5.1590   -0.4090   61.5780 C.3    66  GLN66       0.0394
     50  CG        -6.1440    0.0320   60.5030 C.3    66  GLN66       0.0908
     51  CD        -7.5430   -0.4850   60.7050 C.2    66  GLN66       0.2608
     52  OE1       -7.7410   -1.6310   61.0900 O.2    66  GLN66      -0.2717
     53  NE2       -8.5300    0.3570   60.4210 N.am   66  GLN66      -0.0878
     54  N        -12.5570   -0.6280   59.3050 N.3   101  PHE101     -0.1227
     55  CA       -11.8140   -1.8510   59.0110 C.3   101  PHE101      0.1736
     56  C        -10.8210   -1.7810   57.8610 C.2   101  PHE101      0.2595
     57  O        -11.0530   -1.0950   56.8790 O.2   101  PHE101     -0.2718
     58  CB       -12.8140   -2.9750   58.7170 C.3   101  PHE101      0.0547
     59  CG       -12.1830   -4.2230   58.1730 C.ar  101  PHE101     -0.0202
     60  CD1      -11.6320   -5.1710   59.0270 C.ar  101  PHE101     -0.0042
     61  CD2      -12.0910   -4.4270   56.8030 C.ar  101  PHE101     -0.0042
     62  CE1      -10.9930   -6.3000   58.5220 C.ar  101  PHE101     -0.0003
     63  CE2      -11.4520   -5.5550   56.2900 C.ar  101  PHE101     -0.0003
     64  CZ       -10.9030   -6.4880   57.1530 C.ar  101  PHE101     -0.0000
     65  N         -9.7110   -2.5040   58.0020 N.am  102  GLN102     -0.1965
     66  CA        -8.6900   -2.6030   56.9620 C.3   102  GLN102      0.1733
     67  C         -8.1510   -4.0250   57.0400 C.2   102  GLN102      0.2617
     68  O         -7.9000   -4.5270   58.1330 O.2   102  GLN102     -0.2715
     69  CB        -7.5330   -1.6290   57.1710 C.3   102  GLN102      0.0408
     70  CG        -6.5340   -1.7030   56.0160 C.3   102  GLN102      0.0908
     71  CD        -5.1300   -1.2680   56.3900 C.2   102  GLN102      0.2608
     72  OE1       -4.6470   -1.5780   57.4780 O.2   102  GLN102     -0.2717
     73  NE2       -4.4540   -0.5680   55.4780 N.am  102  GLN102     -0.0878
     74  N         -7.9810   -4.6690   55.8860 N.am  103  GLY103     -0.1940
     75  CA        -7.4890   -6.0350   55.8620 C.3   103  GLY103      0.2014
     76  C         -5.9810   -6.1660   55.8150 C.2   103  GLY103      0.2639
     77  O         -5.2560   -5.1710   55.7390 O.2   103  GLY103     -0.2714
     78  N         -5.5050   -7.4050   55.8580 N.am  104  THR104     -0.1950
     79  CA        -4.0740   -7.6750   55.8290 C.3   104  THR104      0.1897
     80  C         -3.5270   -7.4280   54.4320 C.2   104  THR104      0.2313
     81  O         -2.3420   -7.1200   54.2540 O.2   104  THR104     -0.2863
     82  CB        -3.7700   -9.1430   56.2340 C.3   104  THR104      0.1794
     83  OG1       -4.2410  -10.0380   55.2180 O.3   104  THR104     -0.2208
     84  CG2       -4.4650   -9.4820   57.5460 C.3   104  THR104      0.0378
     85  N         -3.6950   -3.6580   53.6850 N.3   107  ALA107     -0.1245
     86  CA        -2.5580   -3.1650   54.4330 C.3   107  ALA107      0.1562
     87  C         -1.2950   -3.2120   53.5960 C.2   107  ALA107      0.2260
     88  O         -0.7170   -2.1820   53.2570 O.2   107  ALA107     -0.2867
     89  CB        -2.3890   -3.9820   55.6680 C.3   107  ALA107      0.0290
     90  N          2.8750  -12.6800   60.8080 N.3   127  ALA127     -0.1231
     91  CA         1.7450  -12.1530   61.5490 C.3   127  ALA127      0.1694
     92  C          2.4400  -11.5620   62.7780 C.2   127  ALA127      0.2593
     93  O          3.6140  -11.8440   63.0020 O.2   127  ALA127     -0.2718
     94  CB         0.8100  -13.2790   61.9380 C.3   127  ALA127      0.0304
     95  N          1.7500  -10.7540   63.5740 N.am  128  GLY128     -0.1942
     96  CA         2.4260  -10.1600   64.7160 C.3   128  GLY128      0.2014
     97  C          1.9160  -10.4990   66.1000 C.2   128  GLY128      0.2639
     98  O          2.2810   -9.8290   67.0670 O.2   128  GLY128     -0.2714
     99  N          1.0900  -11.5360   66.2040 N.am  129  ASP129     -0.1957
    100  CA         0.5320  -11.9410   67.4920 C.3   129  ASP129      0.1840
    101  C          0.5410  -13.4610   67.6870 C.2   129  ASP129      0.2622
    102  O         -0.4660  -14.0570   68.0830 O.2   129  ASP129     -0.2715
    103  CB        -0.8940  -11.3970   67.6300 C.3   129  ASP129      0.1450
    104  CG        -1.7880  -11.7980   66.4660 C.2   129  ASP129      0.3671
    105  OD1       -1.2550  -12.3490   65.4650 O.co2 129  ASP129     -0.2456
    106  OD2       -3.0190  -11.5580   66.5510 O.co2 129  ASP129     -0.2456
    107  N          1.6900  -14.0770   67.4190 N.am  130  HIS130     -0.1973
    108  CA         1.8430  -15.5210   67.5550 C.3   130  HIS130      0.1656
    109  C          3.0730  -15.8340   68.3860 C.2   130  HIS130      0.2291
    110  O          4.1820  -15.4310   68.0430 O.2   130  HIS130     -0.2864
    111  CB         1.9800  -16.1630   66.1740 C.3   130  HIS130      0.0771
    112  CG         0.7690  -16.0010   65.3140 C.ar  130  HIS130      0.0820
    113  ND1        0.8330  -15.9780   63.9380 N.ar  130  HIS130     -0.2267
    114  CD2       -0.5340  -15.8270   65.6340 C.ar  130  HIS130      0.1154
    115  CE1       -0.3780  -15.7890   63.4470 C.ar  130  HIS130      0.1986
    116  NE2       -1.2260  -15.6930   64.4550 N.ar  130  HIS130     -0.2212
    117  N        -11.3320  -22.7050   54.7010 N.3   181  GLU181     -0.1245
    118  CA       -11.3500  -21.8470   55.8670 C.3   181  GLU181      0.1567
    119  C        -12.1950  -22.4350   56.9740 C.2   181  GLU181      0.2260
    120  O        -13.3750  -22.7070   56.7890 O.2   181  GLU181     -0.2867
    121  CB       -11.8620  -20.4580   55.4960 C.3   181  GLU181      0.0388
    122  CG       -11.7250  -19.4560   56.6140 C.3   181  GLU181      0.1160
    123  CD       -10.3360  -19.4620   57.2210 C.2   181  GLU181      0.3649
    124  OE1       -9.3520  -19.3910   56.4550 O.co2 181  GLU181     -0.2457
    125  OE2      -10.2320  -19.5350   58.4640 O.co2 181  GLU181     -0.2457
    126  N         -2.3640  -23.2310   57.6370 N.3   213  SER213     -0.1202
    127  CA        -1.4870  -22.0930   57.4030 C.3   213  SER213      0.2020
    128  C         -1.4290  -21.3860   58.7540 C.2   213  SER213      0.2619
    129  O         -2.3560  -21.4850   59.5430 O.2   213  SER213     -0.2717
    130  CB        -2.0790  -21.1460   56.3550 C.3   213  SER213      0.2103
    131  OG        -2.9660  -20.2180   56.9590 O.3   213  SER213     -0.2182
    132  N         -0.3460  -20.6710   59.0130 N.am  214  MET214     -0.1965
    133  CA        -0.2000  -19.9840   60.2810 C.3   214  MET214      0.1736
    134  C          0.3120  -18.5580   60.1410 C.2   214  MET214      0.2617
    135  O          0.9510  -18.0310   61.0450 O.2   214  MET214     -0.2715
    136  CB         0.7280  -20.8000   61.1760 C.3   214  MET214      0.0427
    137  CG         1.8850  -21.4490   60.4290 C.3   214  MET214      0.0599
    138  SD         2.8070  -22.5430   61.5000 S.3   214  MET214     -0.1393
    139  CE         4.4050  -21.8580   61.3730 C.3   214  MET214      0.0692
    140  N          0.0370  -17.9380   59.0010 N.am  215  GLY215     -0.1955
    141  CA         0.4630  -16.5700   58.7910 C.3   215  GLY215      0.1869
    142  C          1.9420  -16.3200   58.5740 C.2   215  GLY215      0.2309
    143  O          2.4490  -15.2430   58.8890 O.2   215  GLY215     -0.2863
    144  N          4.7370  -16.4940   55.5410 N.3   217  TYR217     -0.1241
    145  CA         4.9480  -16.7070   54.1230 C.3   217  TYR217      0.1605
    146  C          6.1660  -16.0250   53.5570 C.2   217  TYR217      0.2264
    147  O          6.5600  -14.9470   53.9920 O.2   217  TYR217     -0.2867
    148  CB         3.7500  -16.2170   53.3160 C.3   217  TYR217      0.0534
    149  CG         2.4320  -16.1920   54.0500 C.ar  217  TYR217     -0.0201
    150  CD1        1.8440  -14.9840   54.4070 C.ar  217  TYR217     -0.0009
    151  CD2        1.7470  -17.3710   54.3420 C.ar  217  TYR217     -0.0009
    152  CE1        0.6100  -14.9460   55.0250 C.ar  217  TYR217      0.0417
    153  CE2        0.5090  -17.3450   54.9640 C.ar  217  TYR217      0.0417
    154  CZ        -0.0580  -16.1290   55.3010 C.ar  217  TYR217      0.1957
    155  OH        -1.3060  -16.0850   55.8940 O.3   217  TYR217     -0.2866
    156  N         -8.2520   -9.7830   52.4690 N.3   237  ASP237     -0.1225
    157  CA        -7.5850  -10.7820   53.2970 C.3   237  ASP237      0.1805
    158  C         -6.4490  -11.4180   52.5290 C.2   237  ASP237      0.2598
    159  O         -6.6650  -12.1050   51.5290 O.2   237  ASP237     -0.2718
    160  CB        -8.5610  -11.8640   53.7050 C.3   237  ASP237      0.1424
    161  CG        -9.8480  -11.3000   54.2330 C.2   237  ASP237      0.3668
    162  OD1       -9.7880  -10.4770   55.1750 O.co2 237  ASP237     -0.2456
    163  OD2      -10.9170  -11.6790   53.7020 O.co2 237  ASP237     -0.2456
    164  N         -5.2360  -11.2000   53.0180 N.am  238  PHE238     -0.1962
    165  CA        -4.0450  -11.7200   52.3790 C.3   238  PHE238      0.1771
    166  C         -3.9210  -13.2420   52.4350 C.2   238  PHE238      0.2620
    167  O         -3.5700  -13.8740   51.4390 O.2   238  PHE238     -0.2715
    168  CB        -2.8130  -11.0920   53.0210 C.3   238  PHE238      0.0574
    169  CG        -1.5410  -11.3980   52.3010 C.ar  238  PHE238     -0.0200
    170  CD1       -1.3050  -10.8730   51.0330 C.ar  238  PHE238     -0.0042
    171  CD2       -0.5870  -12.2280   52.8760 C.ar  238  PHE238     -0.0042
    172  CE1       -0.1430  -11.1710   50.3490 C.ar  238  PHE238     -0.0003
    173  CE2        0.5890  -12.5360   52.1970 C.ar  238  PHE238     -0.0003
    174  CZ         0.8100  -12.0060   50.9300 C.ar  238  PHE238     -0.0000
    175  N         -4.2200  -13.8200   53.5960 N.am  239  GLY239     -0.1940
    176  CA        -4.0930  -15.2570   53.7810 C.3   239  GLY239      0.2014
    177  C         -5.2570  -16.1630   53.4310 C.2   239  GLY239      0.2639
    178  O         -5.0360  -17.2830   52.9780 O.2   239  GLY239     -0.2714
    179  N         -6.4870  -15.7110   53.6490 N.am  240  SER240     -0.1949
    180  CA        -7.6510  -16.5340   53.3310 C.3   240  SER240      0.1924
    181  C         -8.2250  -16.2620   51.9330 C.2   240  SER240      0.2314
    182  O         -9.1120  -16.9870   51.4660 O.2   240  SER240     -0.2863
    183  CB        -8.7380  -16.3370   54.3900 C.3   240  SER240      0.2116
    184  OG        -9.0990  -14.9750   54.5140 O.3   240  SER240     -0.2180
    185  N         -1.4210  -18.9520   69.2170 N.3   264  ASP264     -0.1239
    186  CA        -2.0570  -17.7070   68.8200 C.3   264  ASP264      0.1674
    187  C         -2.4170  -16.9510   70.0870 C.2   264  ASP264      0.2266
    188  O         -3.1230  -17.4660   70.9530 O.2   264  ASP264     -0.2867
    189  CB        -3.3180  -17.9850   68.0050 C.3   264  ASP264      0.1410
    190  CG        -3.9010  -16.7290   67.3970 C.2   264  ASP264      0.3668
    191  OD1       -4.1050  -15.7500   68.1460 O.co2 264  ASP264     -0.2456
    192  OD2       -4.1580  -16.7230   66.1730 O.co2 264  ASP264     -0.2456
@<TRIPOS>BOND
     1   172   174   ar
     2   172   170   ar
     3   174   173   ar
     4   170   169   ar
     5   167   166    2
     6   182   181    2
     7   159   158    2
     8   181   180    1
     9   173   171   ar
    10   169   171   ar
    11   169   168    1
    12   165   166    1
    13   165   164    1
    14   165   168    1
    15   166   175   am
    16   156   157    1
    17   158   164   am
    18   158   157    1
    19   178   177    2
    20    88    87    2
    21   157   160    1
    22   148   149    1
    23   148   145    1
    24   180   179    1
    25   180   183    1
    26   177   179   am
    27   177   176    1
    28   146   147    2
    29   146   145    1
    30   175   176    1
    31    87    86    1
    32    85    86    1
    33   163   161   ar
    34   160   161    1
    35   149   151   ar
    36   149   150   ar
    37   145   144    1
    38   161   162   ar
    39    81    80    2
    40   151   153   ar
    41   183   184    1
    42   150   152   ar
    43    80    79    1
    44    86    89    1
    45   117   118    1
    46   153   154   ar
    47   152   154   ar
    48    83    82    1
    49   154   155    1
    50    73    71   am
    51   121   118    1
    52   121   122    1
    53    77    76    2
    54    76    78   am
    55    76    75    1
    56    79    78    1
    57    79    82    1
    58    75    74    1
    59   118   119    1
    60    74    67   am
    61    70    71    1
    62    70    69    1
    63    82    84    1
    64    63    61   ar
    65    63    64   ar
    66    37    35    1
    67   130   131    1
    68   130   127    1
    69    71    72    2
    70   124   123   ar
    71   122   123    1
    72   120   119    2
    73    61    59   ar
    74    57    56    2
    75    36    35    1
    76    66    67    1
    77    66    69    1
    78    66    65    1
    79    35    34    1
    80    67    68    2
    81    64    62   ar
    82   123   125   ar
    83   127   126    1
    84   127   128    1
    85     8     6    1
    86     7     6    1
    87    56    65   am
    88    56    55    1
    89    59    58    1
    90    59    60   ar
    91     6     5    1
    92    34    31    1
    93    62    60   ar
    94   142   141    1
    95   142   143    2
    96    58    55    1
    97   128   132   am
    98   128   129    2
    99   141   140    1
   100   140   134   am
   101    55    54    1
   102   132   133    1
   103    31    30    1
   104    31    32    1
   105     5     2    1
   106   134   133    1
   107   134   135    2
   108   133   136    1
   109     1     2    1
   110    53    51   am
   111   137   136    1
   112   137   138    1
   113     2     3    1
   114    50    51    1
   115    50    49    1
   116    51    52    2
   117    32    38   am
   118    32    33    2
   119    90    91    1
   120    38    39    1
   121    41    40    2
   122    46    49    1
   123    46    45    1
   124    46    47    1
   125    48    47    2
   126   139   138    1
   127    91    94    1
   128    91    92    1
   129    40    45   am
   130    40    39    1
   131     3     9   am
   132     3     4    2
   133    39    42    1
   134     9    10    1
   135    16    15    2
   136    18    17    1
   137    18    19    1
   138    92    93    2
   139    92    95   am
   140    15    17   am
   141    15    14    1
   142    44    42    1
   143    42    43    1
   144    13    14    1
   145    13    11   am
   146   115   113   ar
   147   115   116   ar
   148    95    96    1
   149    10    11    1
   150    19    20    2
   151   113   112   ar
   152    11    12    2
   153   116   114   ar
   154    96    97    1
   155   112   114   ar
   156   112   111    1
   157   105   104   ar
   158    97    99   am
   159    97    98    2
   160   192   190   ar
   161   111   108    1
   162    99   100    1
   163   104   106   ar
   164   104   103    1
   165    29    28    1
   166   190   189    1
   167   190   191   ar
   168   107   108    1
   169   107   101   am
   170   100   103    1
   171   100   101    1
   172    28    27    1
   173   108   109    1
   174   101   102    2
   175   189   186    1
   176    25    26    1
   177    25    22    1
   178   110   109    2
   179    26    27    1
   180    21    22    1
   181   186   185    1
   182   186   187    1
   183    22    23    1
   184    23    24    2
   185   187   188    2
