@<TRIPOS>MOLECULE
tmp/1yp4C00.pdb
 161 156 0 0 0
SMALL
GASTEIGER

@<TRIPOS>ATOM
      1  N          2.8040   -7.9420   59.3210 N.3    16  LEU16      -0.1231
      2  CA         1.4370   -7.4690   59.3820 C.3    16  LEU16       0.1693
      3  C          1.1980   -7.3090   60.8730 C.2    16  LEU16       0.2593
      4  O          0.7470   -8.2330   61.5470 O.2    16  LEU16      -0.2718
      5  CB         0.4830   -8.4980   58.7640 C.3    16  LEU16       0.0284
      6  CG         0.8150   -8.7660   57.2950 C.3    16  LEU16       0.0019
      7  CD1       -0.0220   -9.9150   56.7590 C.3    16  LEU16       0.0001
      8  CD2        0.5790   -7.5090   56.4940 C.3    16  LEU16       0.0001
      9  N          1.5350   -6.1230   61.3740 N.am   17  GLY17      -0.1942
     10  CA         1.4050   -5.8120   62.7860 C.3    17  GLY17       0.2014
     11  C          0.0080   -5.8130   63.3540 C.2    17  GLY17       0.2639
     12  O         -0.1840   -5.9460   64.5600 O.2    17  GLY17      -0.2714
     13  N         -0.9840   -5.6450   62.5020 N.am   18  GLY18      -0.1939
     14  CA        -2.3490   -5.6450   62.9940 C.3    18  GLY18       0.2014
     15  C         -3.1960   -4.5600   62.3630 C.2    18  GLY18       0.2639
     16  O         -2.6800   -3.6570   61.6930 O.2    18  GLY18      -0.2714
     17  N         -4.5020   -4.6680   62.5620 N.am   19  GLY19      -0.1954
     18  CA        -5.4120   -3.6800   62.0230 C.3    19  GLY19       0.1869
     19  C         -5.8830   -2.7260   63.1120 C.2    19  GLY19       0.2309
     20  O         -5.0910   -1.9630   63.6800 O.2    19  GLY19      -0.2863
     21  N         -1.5320   -2.7450   67.8760 N.3    33  LYS33      -0.1245
     22  CA        -1.2790   -4.1050   68.3340 C.3    33  LYS33       0.1561
     23  C          0.1970   -4.4560   68.5940 C.2    33  LYS33       0.2260
     24  O          0.5140   -5.0430   69.6230 O.2    33  LYS33      -0.2867
     25  CB        -1.8930   -5.0920   67.3450 C.3    33  LYS33       0.0271
     26  CG        -2.3690   -6.3850   67.9720 C.3    33  LYS33       0.0035
     27  CD        -3.0530   -7.2600   66.9320 C.3    33  LYS33       0.0206
     28  CE        -3.6110   -8.5190   67.5600 C.3    33  LYS33       0.1093
     29  NZ        -4.4140   -9.2900   66.5780 N.3    33  LYS33      -0.1314
     30  N          3.7390   -3.1630   59.2220 N.3    63  LEU63      -0.1231
     31  CA         2.4740   -2.5880   58.7990 C.3    63  LEU63       0.1693
     32  C          1.4720   -2.6500   59.9350 C.2    63  LEU63       0.2593
     33  O          1.3080   -3.6780   60.5700 O.2    63  LEU63      -0.2718
     34  CB         1.9040   -3.3580   57.6050 C.3    63  LEU63       0.0284
     35  CG         2.6180   -3.2750   56.2590 C.3    63  LEU63       0.0019
     36  CD1        1.9050   -4.1770   55.2460 C.3    63  LEU63       0.0001
     37  CD2        2.6120   -1.8270   55.7740 C.3    63  LEU63       0.0001
     38  N          0.7940   -1.5450   60.1830 N.am   64  THR64      -0.1939
     39  CA        -0.2210   -1.5010   61.2190 C.3    64  THR64       0.2028
     40  C         -1.2520   -0.4530   60.7820 C.2    64  THR64       0.2642
     41  O         -0.8720    0.6300   60.3270 O.2    64  THR64      -0.2714
     42  CB         0.4060   -1.1590   62.5910 C.3    64  THR64       0.1808
     43  OG1       -0.6290   -0.8630   63.5340 O.3    64  THR64      -0.2208
     44  CG2        1.3660   -0.0070   62.4750 C.3    64  THR64       0.0379
     45  N         -2.5420   -0.7790   60.8910 N.am   65  GLN65      -0.1976
     46  CA        -3.5690    0.1580   60.4420 C.3    65  GLN65       0.1601
     47  C         -3.4540    1.5290   61.0940 C.2    65  GLN65       0.2287
     48  O         -3.6700    2.5470   60.4280 O.2    65  GLN65      -0.2864
     49  CB        -4.9770   -0.3930   60.6460 C.3    65  GLN65       0.0394
     50  CG        -5.9640    0.2680   59.6930 C.3    65  GLN65       0.0908
     51  CD        -7.3930   -0.1760   59.8830 C.2    65  GLN65       0.2608
     52  OE1       -7.6630   -1.2910   60.3360 O.2    65  GLN65      -0.2717
     53  NE2       -8.3270    0.6930   59.5120 N.am   65  GLN65      -0.0878
     54  N        -12.6610   -0.5970   58.1910 N.3   100  PHE100     -0.1227
     55  CA       -11.9160   -1.8350   57.9440 C.3   100  PHE100      0.1736
     56  C        -10.8210   -1.7810   56.8800 C.2   100  PHE100      0.2595
     57  O        -10.9330   -1.0810   55.8890 O.2   100  PHE100     -0.2718
     58  CB       -12.8960   -2.9580   57.5810 C.3   100  PHE100      0.0547
     59  CG       -12.2260   -4.2370   57.1460 C.ar  100  PHE100     -0.0202
     60  CD1      -11.6310   -5.0810   58.0780 C.ar  100  PHE100     -0.0042
     61  CD2      -12.1920   -4.5960   55.8030 C.ar  100  PHE100     -0.0042
     62  CE1      -11.0140   -6.2700   57.6750 C.ar  100  PHE100     -0.0003
     63  CE2      -11.5830   -5.7730   55.3900 C.ar  100  PHE100     -0.0003
     64  CZ       -10.9920   -6.6150   56.3270 C.ar  100  PHE100     -0.0000
     65  N         -9.7400   -2.5120   57.1150 N.am  101  GLN101     -0.1965
     66  CA        -8.6510   -2.6020   56.1560 C.3   101  GLN101      0.1733
     67  C         -8.1070   -4.0220   56.2180 C.2   101  GLN101      0.2617
     68  O         -7.7190   -4.4960   57.2940 O.2   101  GLN101     -0.2715
     69  CB        -7.5120   -1.6290   56.4550 C.3   101  GLN101      0.0408
     70  CG        -6.3910   -1.8140   55.4250 C.3   101  GLN101      0.0908
     71  CD        -5.0800   -1.1390   55.7750 C.2   101  GLN101      0.2608
     72  OE1       -4.5500   -1.3120   56.8790 O.2   101  GLN101     -0.2717
     73  NE2       -4.5300   -0.3840   54.8210 N.am  101  GLN101     -0.0878
     74  N         -8.0770   -4.6980   55.0700 N.am  102  GLY102     -0.1940
     75  CA        -7.5790   -6.0650   55.0140 C.3   102  GLY102      0.2014
     76  C         -6.0750   -6.1540   54.8320 C.2   102  GLY102      0.2639
     77  O         -5.4510   -5.2010   54.3780 O.2   102  GLY102     -0.2714
     78  N         -5.4880   -7.3000   55.1690 N.am  103  THR103     -0.1950
     79  CA        -4.0440   -7.4770   55.0420 C.3   103  THR103      0.1897
     80  C         -3.5390   -7.3410   53.6160 C.2   103  THR103      0.2313
     81  O         -2.4170   -6.8840   53.3910 O.2   103  THR103     -0.2863
     82  CB        -3.5930   -8.8400   55.5900 C.3   103  THR103      0.1794
     83  OG1       -4.1930   -9.8920   54.8280 O.3   103  THR103     -0.2208
     84  CG2       -4.0110   -8.9850   57.0450 C.3   103  THR103      0.0378
     85  N         -3.4330   -3.7590   52.9780 N.3   106  ALA106     -0.1245
     86  CA        -2.3330   -3.1980   53.7470 C.3   106  ALA106      0.1562
     87  C         -1.0720   -3.1920   52.9020 C.2   106  ALA106      0.2260
     88  O         -0.4550   -2.1560   52.6950 O.2   106  ALA106     -0.2867
     89  CB        -2.1120   -4.0220   55.0160 C.3   106  ALA106      0.0290
     90  N          2.8750  -12.6410   60.3750 N.3   126  ALA126     -0.1231
     91  CA         1.7990  -12.1370   61.2060 C.3   126  ALA126      0.1694
     92  C          2.5220  -11.4970   62.4040 C.2   126  ALA126      0.2593
     93  O          3.6220  -11.9220   62.7670 O.2   126  ALA126     -0.2718
     94  CB         0.9210  -13.2800   61.6630 C.3   126  ALA126      0.0304
     95  N          1.9210  -10.4790   63.0090 N.am  127  GLY127     -0.1942
     96  CA         2.5710   -9.8250   64.1300 C.3   127  GLY127      0.2014
     97  C          1.9860  -10.1000   65.5030 C.2   127  GLY127      0.2639
     98  O          2.2240   -9.3370   66.4430 O.2   127  GLY127     -0.2714
     99  N          1.2360  -11.1890   65.6310 N.am  128  ASP128     -0.1957
    100  CA         0.6160  -11.5450   66.9050 C.3   128  ASP128      0.1840
    101  C          0.6100  -13.0580   67.1710 C.2   128  ASP128      0.2622
    102  O         -0.4090  -13.6270   67.5650 O.2   128  ASP128     -0.2715
    103  CB        -0.8120  -10.9880   66.9510 C.3   128  ASP128      0.1450
    104  CG        -1.6910  -11.5200   65.8160 C.2   128  ASP128      0.3671
    105  OD1       -1.1430  -12.0680   64.8300 O.co2 128  ASP128     -0.2456
    106  OD2       -2.9320  -11.3830   65.9110 O.co2 128  ASP128     -0.2456
    107  N          1.7490  -13.7020   66.9330 N.am  129  HIS129     -0.1973
    108  CA         1.9070  -15.1380   67.1740 C.3   129  HIS129      0.1656
    109  C          3.1660  -15.2750   68.0040 C.2   129  HIS129      0.2291
    110  O          4.1250  -14.5380   67.7950 O.2   129  HIS129     -0.2864
    111  CB         2.0650  -15.9010   65.8580 C.3   129  HIS129      0.0771
    112  CG         0.8760  -15.7960   64.9600 C.ar  129  HIS129      0.0820
    113  ND1        0.9490  -15.9990   63.5990 N.ar  129  HIS129     -0.2267
    114  CD2       -0.4110  -15.4620   65.2230 C.ar  129  HIS129      0.1154
    115  CE1       -0.2400  -15.7890   63.0610 C.ar  129  HIS129      0.1986
    116  NE2       -1.0830  -15.4610   64.0250 N.ar  129  HIS129     -0.2212
    117  N          0.3850  -18.0810   58.6820 N.3   214  GLY214     -0.1225
    118  CA         0.5430  -16.6530   58.5230 C.3   214  GLY214      0.1811
    119  C          2.0000  -16.3150   58.3230 C.2   214  GLY214      0.2280
    120  O          2.4370  -15.2040   58.6150 O.2   214  GLY214     -0.2866
    121  N          4.7760  -16.6030   55.2620 N.3   216  TYR216     -0.1241
    122  CA         5.0030  -16.9120   53.8600 C.3   216  TYR216      0.1605
    123  C          6.2250  -16.2120   53.2820 C.2   216  TYR216      0.2264
    124  O          6.6670  -15.1870   53.8010 O.2   216  TYR216     -0.2867
    125  CB         3.8010  -16.5020   53.0140 C.3   216  TYR216      0.0534
    126  CG         2.4820  -16.5020   53.7360 C.ar  216  TYR216     -0.0201
    127  CD1        1.9980  -15.3450   54.3300 C.ar  216  TYR216     -0.0009
    128  CD2        1.7030  -17.6520   53.8000 C.ar  216  TYR216     -0.0009
    129  CE1        0.7670  -15.3310   54.9680 C.ar  216  TYR216      0.0417
    130  CE2        0.4720  -17.6480   54.4230 C.ar  216  TYR216      0.0417
    131  CZ         0.0060  -16.4860   55.0080 C.ar  216  TYR216      0.1957
    132  OH        -1.2260  -16.4750   55.6260 O.3   216  TYR216     -0.2866
    133  N         -8.1360   -9.8640   51.8860 N.3   236  ASP236     -0.1225
    134  CA        -7.3670  -10.6990   52.8030 C.3   236  ASP236      0.1805
    135  C         -6.2230  -11.4200   52.0910 C.2   236  ASP236      0.2598
    136  O         -6.4200  -12.0700   51.0580 O.2   236  ASP236     -0.2718
    137  CB        -8.2890  -11.7210   53.4650 C.3   236  ASP236      0.1424
    138  CG        -9.5850  -11.0990   53.9610 C.2   236  ASP236      0.3668
    139  OD1       -9.5250  -10.0640   54.6630 O.co2 236  ASP236     -0.2456
    140  OD2      -10.6630  -11.6500   53.6510 O.co2 236  ASP236     -0.2456
    141  N         -5.0270  -11.3170   52.6590 N.am  237  PHE237     -0.1962
    142  CA        -3.8430  -11.9200   52.0710 C.3   237  PHE237      0.1771
    143  C         -3.7840  -13.4510   52.1370 C.2   237  PHE237      0.2620
    144  O         -3.7510  -14.1170   51.1030 O.2   237  PHE237     -0.2715
    145  CB        -2.5960  -11.3160   52.7230 C.3   237  PHE237      0.0574
    146  CG        -1.3540  -11.4850   51.9100 C.ar  237  PHE237     -0.0200
    147  CD1       -0.5970  -12.6400   52.0110 C.ar  237  PHE237     -0.0042
    148  CD2       -0.9800  -10.5100   50.9920 C.ar  237  PHE237     -0.0042
    149  CE1        0.5080  -12.8270   51.2050 C.ar  237  PHE237     -0.0003
    150  CE2        0.1200  -10.6830   50.1790 C.ar  237  PHE237     -0.0003
    151  CZ         0.8700  -11.8440   50.2800 C.ar  237  PHE237     -0.0000
    152  N         -3.7690  -14.0050   53.3460 N.am  238  GLY238     -0.1940
    153  CA        -3.6910  -15.4490   53.4960 C.3   238  GLY238      0.2014
    154  C         -4.9210  -16.2690   53.1240 C.2   238  GLY238      0.2639
    155  O         -4.8070  -17.4670   52.8530 O.2   238  GLY238     -0.2714
    156  N         -6.0930  -15.6430   53.0970 N.am  239  SER239     -0.1949
    157  CA        -7.3170  -16.3680   52.7750 C.3   239  SER239      0.1924
    158  C         -7.8670  -16.1900   51.3530 C.2   239  SER239      0.2314
    159  O         -8.6610  -17.0060   50.9040 O.2   239  SER239     -0.2863
    160  CB        -8.4100  -16.0130   53.7840 C.3   239  SER239      0.2116
    161  OG        -8.7470  -14.6430   53.6980 O.3   239  SER239     -0.2180
@<TRIPOS>BOND
     1   150   151   ar
     2   150   148   ar
     3   151   149   ar
     4   159   158    2
     5   148   146   ar
     6   136   135    2
     7   144   143    2
     8   149   147   ar
     9   158   157    1
    10   133   134    1
    11   146   147   ar
    12   146   145    1
    13   142   143    1
    14   142   141    1
    15   142   145    1
    16   135   141   am
    17   135   134    1
    18   143   152   am
    19    88    87    2
    20   157   156    1
    21   157   160    1
    22   134   137    1
    23   155   154    2
    24    87    86    1
    25    85    86    1
    26   125   126    1
    27   125   122    1
    28   156   154   am
    29   154   153    1
    30   123   124    2
    31   123   122    1
    32   152   153    1
    33    81    80    2
    34   137   138    1
    35    80    79    1
    36   140   138   ar
    37   161   160    1
    38   126   128   ar
    39   126   127   ar
    40    86    89    1
    41   128   130   ar
    42   122   121    1
    43   138   139   ar
    44   127   129   ar
    45    77    76    2
    46   130   131   ar
    47    73    71   am
    48    83    82    1
    49    76    75    1
    50    76    78   am
    51   129   131   ar
    52   131   132    1
    53    75    74    1
    54    79    78    1
    55    79    82    1
    56    74    67   am
    57    36    35    1
    58    63    61   ar
    59    63    64   ar
    60    70    71    1
    61    70    69    1
    62    82    84    1
    63    37    35    1
    64    71    72    2
    65    61    59   ar
    66    57    56    2
    67    66    67    1
    68    66    69    1
    69    66    65    1
    70    67    68    2
    71    35    34    1
    72    64    62   ar
    73     8     6    1
    74     7     6    1
    75    56    65   am
    76    56    55    1
    77    59    58    1
    78    59    60   ar
    79     6     5    1
    80    58    55    1
    81    34    31    1
    82    62    60   ar
    83    55    54    1
    84   119   118    1
    85   119   120    2
    86   118   117    1
    87     5     2    1
    88    31    30    1
    89    31    32    1
    90     1     2    1
    91     2     3    1
    92    53    51   am
    93    50    51    1
    94    50    49    1
    95    51    52    2
    96    32    38   am
    97    32    33    2
    98    38    39    1
    99    41    40    2
   100    90    91    1
   101    48    47    2
   102    46    49    1
   103    46    45    1
   104    46    47    1
   105    40    45   am
   106    40    39    1
   107     3     9   am
   108     3     4    2
   109    91    94    1
   110    91    92    1
   111    39    42    1
   112     9    10    1
   113    16    15    2
   114    18    17    1
   115    18    19    1
   116    15    17   am
   117    15    14    1
   118    92    93    2
   119    92    95   am
   120    44    42    1
   121    13    14    1
   122    13    11   am
   123    42    43    1
   124    10    11    1
   125    95    96    1
   126   115   113   ar
   127   115   116   ar
   128    19    20    2
   129    11    12    2
   130   113   112   ar
   131   116   114   ar
   132    96    97    1
   133   105   104   ar
   134   112   114   ar
   135   112   111    1
   136    97    99   am
   137    97    98    2
   138    99   100    1
   139   104   106   ar
   140   104   103    1
   141   111   108    1
   142    29    28    1
   143   100   103    1
   144   100   101    1
   145    27    28    1
   146    27    26    1
   147   107   101   am
   148   107   108    1
   149   101   102    2
   150   108   109    1
   151    25    26    1
   152    25    22    1
   153   110   109    2
   154    21    22    1
   155    22    23    1
   156    23    24    2
