@<TRIPOS>MOLECULE
tmp/1ypgB01.pdb
 230 232 0 0 0
SMALL
GASTEIGER

@<TRIPOS>ATOM
      1  N         22.4950   -6.0520   18.3660 N.3    43  HIS43      -0.1241
      2  CA        22.3660   -7.4330   17.8990 C.3    43  HIS43       0.1621
      3  C         21.6550   -7.4960   16.5580 C.2    43  HIS43       0.2264
      4  O         21.6760   -8.5440   15.9190 O.2    43  HIS43      -0.2867
      5  CB        21.6340   -8.3260   18.9080 C.3    43  HIS43       0.0745
      6  CG        20.1560   -8.2220   18.9570 C.ar   43  HIS43       0.0817
      7  ND1       19.5230   -7.4170   19.9130 N.ar   43  HIS43      -0.2268
      8  CD2       19.1620   -8.8000   18.2350 C.ar   43  HIS43       0.1154
      9  CE1       18.2220   -7.5200   19.7330 C.ar   43  HIS43       0.1986
     10  NE2       17.9750   -8.3400   18.7310 N.ar   43  HIS43      -0.2212
     11  N         26.1730  -10.0520   15.3350 N.3    47  TYR47      -0.1241
     12  CA        25.9940  -11.1940   16.2140 C.3    47  TYR47       0.1605
     13  C         26.7510  -12.4030   15.6530 C.2    47  TYR47       0.2264
     14  O         26.2110  -13.3250   15.0860 O.2    47  TYR47      -0.2867
     15  CB        24.5360  -11.5740   16.4770 C.3    47  TYR47       0.0534
     16  CG        24.4690  -12.5370   17.6510 C.ar   47  TYR47      -0.0201
     17  CD1       24.8940  -12.1430   18.9120 C.ar   47  TYR47      -0.0009
     18  CD2       23.9940  -13.8220   17.4930 C.ar   47  TYR47      -0.0009
     19  CE1       24.8350  -13.0180   19.9790 C.ar   47  TYR47       0.0417
     20  CE2       23.9340  -14.6990   18.5440 C.ar   47  TYR47       0.0417
     21  CZ        24.3630  -14.2890   19.7920 C.ar   47  TYR47       0.1957
     22  OH        24.2890  -15.1880   20.8290 O.3    47  TYR47      -0.2866
     23  N         26.0140  -16.3140   15.0800 N.3    50  TRP50      -0.1241
     24  CA        25.0390  -16.6790   14.0590 C.3    50  TRP50       0.1605
     25  C         25.5060  -16.1590   12.7030 C.2    50  TRP50       0.2264
     26  O         24.7460  -16.0650   11.7380 O.2    50  TRP50      -0.2867
     27  CB        23.6810  -16.0840   14.4180 C.3    50  TRP50       0.0550
     28  CG        23.0170  -16.7080   15.6020 C.ar   50  TRP50       0.0003
     29  CD1       23.4880  -17.7390   16.3660 C.ar   50  TRP50       0.0946
     30  CD2       21.7510  -16.3440   16.1550 C.ar   50  TRP50       0.0152
     31  NE1       22.5950  -18.0380   17.3650 N.ar   50  TRP50      -0.2442
     32  CE2       21.5230  -17.1970   17.2520 C.ar   50  TRP50       0.0810
     33  CE3       20.7930  -15.3810   15.8200 C.ar   50  TRP50       0.0012
     34  CZ2       20.3720  -17.1070   18.0170 C.ar   50  TRP50       0.0191
     35  CZ3       19.6430  -15.2900   16.5830 C.ar   50  TRP50       0.0001
     36  CH2       19.4540  -16.1530   17.6650 C.ar   50  TRP50       0.0015
     37  N         26.1100  -13.1370   11.8700 N.3    52  LYS52      -0.1245
     38  CA        25.5090  -11.8680   11.4780 C.3    52  LYS52       0.1561
     39  C         26.4860  -10.7060   11.6050 C.2    52  LYS52       0.2260
     40  O         27.0200  -10.4630   12.6960 O.2    52  LYS52      -0.2867
     41  CB        24.2740  -11.5790   12.3440 C.3    52  LYS52       0.0271
     42  CG        23.7730  -10.1520   12.1830 C.3    52  LYS52       0.0035
     43  CD        22.6280   -9.8060   13.1150 C.3    52  LYS52       0.0206
     44  CE        21.4700  -10.7730   13.0610 C.3    52  LYS52       0.1093
     45  NZ        20.4720  -10.5310   14.1460 N.3    52  LYS52      -0.1314
     46  N         28.3640   -9.4000   23.0880 N.3    92  TRP92      -0.1227
     47  CA        27.6250  -10.4580   22.4220 C.3    92  TRP92       0.1737
     48  C         28.1040  -11.8440   22.8540 C.2    92  TRP92       0.2595
     49  O         27.4160  -12.8250   22.5740 O.2    92  TRP92      -0.2718
     50  CB        27.7840  -10.3810   20.9150 C.3    92  TRP92       0.0564
     51  CG        29.1970  -10.3170   20.4430 C.ar   92  TRP92       0.0003
     52  CD1       29.9180   -9.1810   20.2320 C.ar   92  TRP92       0.0946
     53  CD2       30.0630  -11.4120   20.1130 C.ar   92  TRP92       0.0152
     54  NE1       31.1770   -9.4970   19.7960 N.ar   92  TRP92      -0.2442
     55  CE2       31.2950  -10.8540   19.7130 C.ar   92  TRP92       0.0810
     56  CE3       29.9240  -12.7980   20.1140 C.ar   92  TRP92       0.0012
     57  CZ2       32.4020  -11.6110   19.3150 C.ar   92  TRP92       0.0191
     58  CZ3       31.0250  -13.5450   19.7180 C.ar   92  TRP92       0.0001
     59  CH2       32.2300  -12.9670   19.3290 C.ar   92  TRP92       0.0015
     60  N         29.2620  -11.8700   23.5080 N.am   93  ARG93      -0.1966
     61  CA        29.7670  -13.1710   23.9600 C.3    93  ARG93       0.1729
     62  C         28.9110  -13.7020   25.0890 C.2    93  ARG93       0.2616
     63  O         28.5240  -14.8670   25.1210 O.2    93  ARG93      -0.2715
     64  CB        31.2240  -13.0410   24.3980 C.3    93  ARG93       0.0348
     65  CG        32.1670  -12.7490   23.2380 C.3    93  ARG93       0.0492
     66  CD        33.6120  -12.9980   23.6220 C.3    93  ARG93       0.2205
     67  NE        34.4780  -13.1380   22.4550 N.pl3  93  ARG93      -0.0865
     68  CZ        34.7610  -14.2740   21.8220 C.cat  93  ARG93       0.5346
     69  NH1       35.5740  -14.2400   20.7720 N.pl3  93  ARG93       0.1354
     70  NH2       34.2560  -15.4300   22.2090 N.pl3  93  ARG93       0.1354
     71  N         28.6200  -12.8120   26.0450 N.am   94  GLU94      -0.1963
     72  CA        27.9680  -13.2930   27.2490 C.3    94  GLU94       0.1733
     73  C         26.4730  -13.0170   27.2720 C.2    94  GLU94       0.2616
     74  O         25.7240  -14.0000   27.2540 O.2    94  GLU94      -0.2715
     75  CB        28.6440  -12.6820   28.4870 C.3    94  GLU94       0.0429
     76  CG        27.9110  -13.0510   29.7660 C.3    94  GLU94       0.1163
     77  CD        28.4370  -12.3320   30.9900 C.2    94  GLU94       0.3649
     78  OE1       29.3170  -11.4540   30.8470 O.co2  94  GLU94      -0.2457
     79  OE2       27.9490  -12.6680   32.0950 O.co2  94  GLU94      -0.2457
     80  N         26.0580  -11.7470   27.3260 N.am   95  ASN95      -0.1958
     81  CA        24.6610  -11.4740   27.6670 C.3    95  ASN95       0.1819
     82  C         24.0000  -10.3080   26.9550 C.2    95  ASN95       0.2621
     83  O         22.9490   -9.8020   27.3790 O.2    95  ASN95      -0.2715
     84  CB        24.6280  -11.1980   29.1810 C.3    95  ASN95       0.1195
     85  CG        25.5090  -10.0340   29.5720 C.2    95  ASN95       0.2630
     86  OD1       26.1540   -9.4300   28.7160 O.2    95  ASN95      -0.2716
     87  ND2       25.5140   -9.7030   30.8600 N.am   95  ASN95      -0.0877
     88  N         24.5760   -9.8370   25.8700 N.am   96  LEU96      -0.1977
     89  CA        24.1010   -8.6820   25.1290 C.3    96  LEU96       0.1596
     90  C         24.1150   -7.3870   25.9280 C.2    96  LEU96       0.2287
     91  O         23.3090   -6.4820   25.6840 O.2    96  LEU96      -0.2864
     92  CB        22.6810   -8.9250   24.6320 C.3    96  LEU96       0.0297
     93  CG        22.4710  -10.0270   23.5920 C.3    96  LEU96       0.0022
     94  CD1       21.1040   -9.8560   22.9460 C.3    96  LEU96       0.0001
     95  CD2       23.5720  -10.0370   22.5390 C.3    96  LEU96       0.0001
     96  N         20.3580  -15.8710   32.8190 N.3   173  ILE173     -0.1245
     97  CA        21.2280  -14.8300   32.2970 C.3   173  ILE173      0.1561
     98  C         21.6030  -13.7840   33.3350 C.2   173  ILE173      0.2260
     99  O         20.7950  -13.3240   34.1550 O.2   173  ILE173     -0.2867
    100  CB        20.5500  -14.1260   31.0960 C.3   173  ILE173      0.0252
    101  CG1       20.1450  -15.1040   29.9810 C.3   173  ILE173      0.0019
    102  CG2       21.3920  -13.0080   30.5020 C.3   173  ILE173      0.0019
    103  CD1       21.3320  -15.7920   29.3460 C.3   173  ILE173      0.0001
    104  N          4.1600   -8.8660   24.9370 N.3   193  ASP193     -0.1225
    105  CA         5.5940   -8.9410   24.7800 C.3   193  ASP193      0.1805
    106  C          5.9650   -8.5550   23.3470 C.2   193  ASP193      0.2598
    107  O          5.1250   -8.6340   22.4400 O.2   193  ASP193     -0.2718
    108  CB         6.1180  -10.3440   25.0850 C.3   193  ASP193      0.1424
    109  CG         7.5800  -10.4800   25.4260 C.2   193  ASP193      0.3668
    110  OD1        8.3400   -9.4930   25.3730 O.co2 193  ASP193     -0.2456
    111  OD2        8.0220  -11.6210   25.7330 O.co2 193  ASP193     -0.2456
    112  N          7.2210   -8.1450   23.2110 N.am  194  ALA194     -0.1966
    113  CA         7.8880   -8.0500   21.9300 C.3   194  ALA194      0.1728
    114  C          8.2300   -9.4750   21.4820 C.2   194  ALA194      0.2616
    115  O          8.1190  -10.3610   22.3120 O.2   194  ALA194     -0.2715
    116  CB         9.1580   -7.2390   21.9680 C.3   194  ALA194      0.0334
    117  N          8.6320   -9.6560   20.2270 N.am  195  CYS195     -0.1954
    118  CA         8.9740  -10.9760   19.7060 C.3   195  CYS195      0.1843
    119  C          9.8420  -10.8150   18.4610 C.2   195  CYS195      0.2625
    120  O         10.2560   -9.7020   18.1000 O.2   195  CYS195     -0.2714
    121  CB         7.7080  -11.7790   19.4130 C.3   195  CYS195      0.0997
    122  SG         7.8170  -13.5840   19.2530 S.3   195  CYS195     -0.0797
    123  N         10.1170  -11.9450   17.8170 N.am  196  GLU196     -0.1963
    124  CA        10.9860  -11.9500   16.6410 C.3   196  GLU196      0.1733
    125  C         10.5330  -10.9310   15.6010 C.2   196  GLU196      0.2616
    126  O          9.3600  -10.9610   15.2230 O.2   196  GLU196     -0.2715
    127  CB        10.9820  -13.3700   16.0780 C.3   196  GLU196      0.0429
    128  CG        11.2400  -13.5000   14.6020 C.3   196  GLU196      0.1163
    129  CD        11.7190  -14.8740   14.1650 C.2   196  GLU196      0.3649
    130  OE1       12.5090  -14.9410   13.1970 O.co2 196  GLU196     -0.2457
    131  OE2       11.3190  -15.8890   14.7710 O.co2 196  GLU196     -0.2457
    132  N         11.4150  -10.0690   15.1460 N.am  197  GLY197     -0.1955
    133  CA        11.1770   -8.9390   14.2690 C.3   197  GLY197      0.1869
    134  C         10.9390   -7.6110   14.9850 C.2   197  GLY197      0.2309
    135  O         10.8930   -6.6110   14.2710 O.2   197  GLY197     -0.2863
    136  N         12.9170   -6.6090   17.6490 N.3   199  SER199     -0.1273
    137  CA        14.2480   -6.2810   18.0850 C.3   199  SER199      0.1575
    138  C         14.7300   -4.9390   17.5270 C.3   199  SER199      0.2036
    139  O         14.5500   -4.7900   16.3260 O.3   199  SER199     -0.2187
    140  CB        15.2830   -7.3160   17.5870 C.3   199  SER199      0.2036
    141  OG        15.3600   -8.4400   18.4080 O.3   199  SER199     -0.2187
    142  N         14.2890   -2.7380   22.3850 N.3   219  VAL219     -0.1231
    143  CA        13.9680   -4.1680   22.4590 C.3   219  VAL219      0.1692
    144  C         15.2560   -4.9540   22.2600 C.2   219  VAL219      0.2593
    145  O         15.8730   -4.8410   21.1890 O.2   219  VAL219     -0.2718
    146  CB        12.9150   -4.5760   21.4210 C.3   219  VAL219      0.0266
    147  CG1       12.6180   -6.0720   21.5590 C.3   219  VAL219      0.0020
    148  CG2       11.6310   -3.7650   21.5450 C.3   219  VAL219      0.0020
    149  N         15.7070   -5.6970   23.2720 N.am  220  SER220     -0.1938
    150  CA        17.0170   -6.3490   23.1920 C.3   220  SER220      0.2055
    151  C         16.9530   -7.8720   23.2350 C.2   220  SER220      0.2643
    152  O         17.4420   -8.5420   22.3350 O.2   220  SER220     -0.2714
    153  CB        17.8810   -5.8760   24.3390 C.3   220  SER220      0.2130
    154  OG        19.1560   -6.4590   24.4310 O.3   220  SER220     -0.2179
    155  N         16.3570   -8.4820   24.2610 N.am  221  TRP221     -0.1959
    156  CA        16.3120   -9.9450   24.2440 C.3   221  TRP221      0.1771
    157  C         15.1770  -10.4510   25.1050 C.2   221  TRP221      0.2620
    158  O         14.5770   -9.7410   25.9140 O.2   221  TRP221     -0.2715
    159  CB        17.6270  -10.5490   24.7250 C.3   221  TRP221      0.0590
    160  CG        18.0970  -10.1940   26.1050 C.ar  221  TRP221      0.0006
    161  CD1       18.7990   -9.0790   26.5000 C.ar  221  TRP221      0.0946
    162  CD2       17.9070  -10.9570   27.3040 C.ar  221  TRP221      0.0152
    163  NE1       19.0500   -9.1000   27.8390 N.ar  221  TRP221     -0.2442
    164  CE2       18.5120  -10.2470   28.3600 C.ar  221  TRP221      0.0810
    165  CE3       17.2800  -12.1770   27.5710 C.ar  221  TRP221      0.0012
    166  CZ2       18.5130  -10.7110   29.6720 C.ar  221  TRP221      0.0191
    167  CZ3       17.2780  -12.6390   28.8710 C.ar  221  TRP221      0.0001
    168  CH2       17.8900  -11.9030   29.8940 C.ar  221  TRP221      0.0015
    169  N         14.8800  -11.7390   24.9380 N.am  222  GLY222     -0.1940
    170  CA        13.9360  -12.3790   25.8490 C.3   222  GLY222      0.2014
    171  C         14.0030  -13.8770   25.5850 C.2   222  GLY222      0.2639
    172  O         14.7010  -14.2920   24.6650 O.2   222  GLY222     -0.2714
    173  N         13.2850  -14.6420   26.3740 N.am  223  GLU223     -0.1963
    174  CA        13.2740  -16.1010   26.2350 C.3   223  GLU223      0.1733
    175  C         11.9010  -16.5630   25.8070 C.2   223  GLU223      0.2617
    176  O         10.9240  -16.6280   26.5520 O.2   223  GLU223     -0.2715
    177  CB        13.6860  -16.7140   27.5690 C.3   223  GLU223      0.0429
    178  CG        15.1160  -16.3860   27.9810 C.3   223  GLU223      0.1163
    179  CD        15.4040  -16.7790   29.4240 C.2   223  GLU223      0.3649
    180  OE1       15.5330  -15.8970   30.2900 O.co2 223  GLU223     -0.2457
    181  OE2       15.4990  -18.0050   29.6740 O.co2 223  GLU223     -0.2457
    182  N         11.7730  -16.8960   24.5240 N.am  224  GLY224     -0.1940
    183  CA        10.4130  -17.1170   24.0250 C.3   224  GLY224      0.2014
    184  C          9.7440  -15.7650   23.8340 C.2   224  GLY224      0.2639
    185  O         10.4250  -14.7350   23.8130 O.2   224  GLY224     -0.2714
    186  N          8.4320  -15.7700   23.6990 N.am  225  CYS225     -0.1967
    187  CA         7.6810  -14.5150   23.6350 C.3   225  CYS225      0.1712
    188  C          6.3860  -14.6600   24.4240 C.2   225  CYS225      0.2296
    189  O          5.6370  -15.6060   24.1460 O.2   225  CYS225     -0.2864
    190  CB         7.3600  -14.0920   22.2030 C.3   225  CYS225      0.0983
    191  SG         8.6910  -14.1200   20.9980 S.3   225  CYS225     -0.0798
    192  N         10.0700  -12.1280   31.1890 N.3   231  TYR231     -0.1227
    193  CA         9.9520  -10.7060   30.8990 C.3   231  TYR231      0.1736
    194  C         10.7890  -10.3120   29.6960 C.2   231  TYR231      0.2596
    195  O         11.8620  -10.8550   29.4340 O.2   231  TYR231     -0.2718
    196  CB        10.3470   -9.8940   32.1580 C.3   231  TYR231      0.0548
    197  CG         9.4230  -10.3120   33.2830 C.ar  231  TYR231     -0.0200
    198  CD1        8.2200   -9.6460   33.5020 C.ar  231  TYR231     -0.0009
    199  CD2        9.7490  -11.3730   34.1130 C.ar  231  TYR231     -0.0009
    200  CE1        7.3760  -10.0300   34.5250 C.ar  231  TYR231      0.0417
    201  CE2        8.9010  -11.7590   35.1370 C.ar  231  TYR231      0.0417
    202  CZ         7.7160  -11.0820   35.3400 C.ar  231  TYR231      0.1957
    203  OH         6.8600  -11.4590   36.3550 O.3   231  TYR231     -0.2866
    204  N         10.2850   -9.3430   28.9330 N.am  232  GLY232     -0.1942
    205  CA        11.1120   -8.7780   27.8720 C.3   232  GLY232      0.2014
    206  C         12.2230   -7.9300   28.4740 C.2   232  GLY232      0.2639
    207  O         11.9670   -7.1870   29.4240 O.2   232  GLY232     -0.2714
    208  N         13.4270   -8.0200   27.9160 N.am  233  PHE233     -0.1959
    209  CA        14.5170   -7.1760   28.3880 C.3   233  PHE233      0.1771
    210  C         14.8720   -6.1240   27.3340 C.2   233  PHE233      0.2619
    211  O         14.7570   -6.4100   26.1560 O.2   233  PHE233     -0.2715
    212  CB        15.7740   -7.9670   28.7220 C.3   233  PHE233      0.0574
    213  CG        15.6290   -8.7290   30.0220 C.ar  233  PHE233     -0.0200
    214  CD1       14.8790   -9.8740   30.1180 C.ar  233  PHE233     -0.0042
    215  CD2       16.2830   -8.2420   31.1420 C.ar  233  PHE233     -0.0042
    216  CE1       14.7620  -10.5600   31.3220 C.ar  233  PHE233     -0.0003
    217  CE2       16.1750   -8.9270   32.3410 C.ar  233  PHE233     -0.0003
    218  CZ        15.4300  -10.0750   32.4300 C.ar  233  PHE233     -0.0000
    219  N         15.2560   -4.9660   27.8490 N.am  234  TYR234     -0.1974
    220  CA        15.4160   -3.7150   27.1520 C.3   234  TYR234      0.1639
    221  C         16.7430   -3.0690   27.5160 C.2   234  TYR234      0.2290
    222  O         17.0880   -2.9750   28.6850 O.2   234  TYR234     -0.2864
    223  CB        14.2360   -2.7710   27.4740 C.3   234  TYR234      0.0560
    224  CG        12.9290   -3.3800   27.0290 C.ar  234  TYR234     -0.0198
    225  CD1       12.2190   -4.2410   27.8480 C.ar  234  TYR234     -0.0009
    226  CD2       12.3800   -3.0950   25.7770 C.ar  234  TYR234     -0.0009
    227  CE1       11.0270   -4.8100   27.4610 C.ar  234  TYR234      0.0417
    228  CE2       11.1890   -3.6590   25.3870 C.ar  234  TYR234      0.0417
    229  CZ        10.5020   -4.5130   26.2290 C.ar  234  TYR234      0.1957
    230  OH         9.3210   -5.0760   25.8150 O.3   234  TYR234     -0.2866
@<TRIPOS>BOND
     1    38    39    1
     2    38    37    1
     3    38    41    1
     4    39    40    2
     5    26    25    2
     6    42    41    1
     7    42    43    1
     8    25    24    1
     9    44    43    1
    10    44    45    1
    11   130   129   ar
    12    24    27    1
    13    24    23    1
    14   129   128    1
    15   129   131   ar
    16   133   134    1
    17   133   132    1
    18   135   134    2
    19    27    28    1
    20   128   127    1
    21    14    13    2
    22   132   125   am
    23   126   125    2
    24    11    12    1
    25   125   124    1
    26    28    30   ar
    27    28    29   ar
    28    13    12    1
    29    33    30   ar
    30    33    35   ar
    31     4     3    2
    32   127   124    1
    33    30    32   ar
    34    12    15    1
    35   139   138    1
    36    29    31   ar
    37    15    16    1
    38     3     2    1
    39    35    36   ar
    40   124   123    1
    41    32    31   ar
    42    32    34   ar
    43    18    16   ar
    44    18    20   ar
    45   138   137    1
    46   140   137    1
    47   140   141    1
    48   136   137    1
    49    16    17   ar
    50    36    34   ar
    51   123   119   am
    52     2     1    1
    53     2     5    1
    54   120   119    2
    55     8    10   ar
    56     8     6   ar
    57   119   118    1
    58    20    21   ar
    59    10     9   ar
    60     5     6    1
    61    17    19   ar
    62     6     7   ar
    63   122   121    1
    64   122   191    1
    65    57    59   ar
    66    57    55   ar
    67    59    58   ar
    68   121   118    1
    69   118   117    1
    70    55    54   ar
    71    55    53   ar
    72    58    56   ar
    73     9     7   ar
    74    21    19   ar
    75    21    22    1
    76    54    52   ar
    77    53    56   ar
    78    53    51   ar
    79   117   114   am
    80    52    51   ar
    81    51    50    1
    82    69    68    1
    83    50    47    1
    84   191   190    1
    85   145   144    2
    86   146   148    1
    87   146   147    1
    88   146   143    1
    89   114   113    1
    90   114   115    2
    91    68    70    1
    92    68    67    2
    93   113   116    1
    94   113   112    1
    95   190   187    1
    96   144   143    1
    97   144   149   am
    98   152   151    2
    99   142   143    1
   100    47    48    1
   101    47    46    1
   102   107   106    2
   103    67    66    1
   104    95    93    1
   105    49    48    2
   106    48    60   am
   107    94    93    1
   108   150   151    1
   109   150   149    1
   110   150   153    1
   111   112   106   am
   112   151   155   am
   113    65    66    1
   114    65    64    1
   115   106   105    1
   116    60    61    1
   117    93    92    1
   118   187   186    1
   119   187   188    1
   120   186   184   am
   121   185   184    2
   122   184   183    1
   123    61    64    1
   124    61    62    1
   125   183   182    1
   126   189   188    2
   127   156   155    1
   128   156   159    1
   129   156   157    1
   130   153   154    1
   131   182   175   am
   132    92    89    1
   133   172   171    2
   134   159   160    1
   135   105   104    1
   136   105   108    1
   137   169   157   am
   138   169   170    1
   139   108   109    1
   140    62    63    2
   141    62    71   am
   142   157   158    2
   143    89    88    1
   144    89    90    1
   145   110   109   ar
   146   228   226   ar
   147   228   229   ar
   148   109   111   ar
   149   171   170    1
   150   171   173   am
   151    91    90    2
   152   226   224   ar
   153   175   174    1
   154   175   176    2
   155   230   229    1
   156    88    82   am
   157    71    72    1
   158   160   161   ar
   159   160   162   ar
   160   211   210    2
   161   229   227   ar
   162   174   173    1
   163   174   177    1
   164   161   163   ar
   165    82    83    2
   166    82    81    1
   167   224   223    1
   168   224   225   ar
   169   220   223    1
   170   220   221    1
   171   220   219    1
   172    72    73    1
   173    72    75    1
   174    74    73    2
   175    73    80   am
   176   162   165   ar
   177   162   164   ar
   178    80    81    1
   179   210   219   am
   180   210   209    1
   181   227   225   ar
   182   221   222    2
   183   177   178    1
   184   165   167   ar
   185    81    84    1
   186   163   164   ar
   187   205   206    1
   188   205   204    1
   189   208   209    1
   190   208   206   am
   191   178   179    1
   192   164   166   ar
   193   209   212    1
   194   206   207    2
   195    75    76    1
   196    86    85    2
   197   212   213    1
   198   167   168   ar
   199   204   194   am
   200    84    85    1
   201   103   101    1
   202   179   181   ar
   203   179   180   ar
   204   195   194    2
   205    85    87   am
   206   166   168   ar
   207   194   193    1
   208    76    77    1
   209   101   100    1
   210   213   214   ar
   211   213   215   ar
   212   214   216   ar
   213   102   100    1
   214    78    77   ar
   215   193   192    1
   216   193   196    1
   217    77    79   ar
   218   100    97    1
   219   215   217   ar
   220   216   218   ar
   221   196   197    1
   222    97    96    1
   223    97    98    1
   224   217   218   ar
   225   197   198   ar
   226   197   199   ar
   227    98    99    2
   228   198   200   ar
   229   199   201   ar
   230   200   202   ar
   231   201   202   ar
   232   202   203    1
