@<TRIPOS>MOLECULE
tmp/1ypjB01.pdb
 230 232 0 0 0
SMALL
GASTEIGER

@<TRIPOS>ATOM
      1  N         22.7620   -6.1430   18.0070 N.3    43  HIS43      -0.1241
      2  CA        22.5920   -7.5210   17.5340 C.3    43  HIS43       0.1621
      3  C         21.8240   -7.5900   16.2150 C.2    43  HIS43       0.2264
      4  O         21.8750   -8.5950   15.5120 O.2    43  HIS43      -0.2867
      5  CB        21.9180   -8.4100   18.5880 C.3    43  HIS43       0.0745
      6  CG        20.4350   -8.2970   18.7160 C.ar   43  HIS43       0.0817
      7  ND1       19.8410   -7.4790   19.6600 N.ar   43  HIS43      -0.2268
      8  CD2       19.4160   -8.8870   18.0520 C.ar   43  HIS43       0.1154
      9  CE1       18.5260   -7.5770   19.5450 C.ar   43  HIS43       0.1986
     10  NE2       18.2410   -8.4300   18.5720 N.ar   43  HIS43      -0.2212
     11  N         26.2500  -10.1860   15.0140 N.3    47  TYR47      -0.1241
     12  CA        26.0800  -11.3050   15.9220 C.3    47  TYR47       0.1605
     13  C         26.8660  -12.4980   15.3670 C.2    47  TYR47       0.2264
     14  O         26.3110  -13.4030   14.7470 O.2    47  TYR47      -0.2867
     15  CB        24.6320  -11.7260   16.1280 C.3    47  TYR47       0.0534
     16  CG        24.4850  -12.6900   17.2890 C.ar   47  TYR47      -0.0201
     17  CD1       24.8360  -12.2590   18.5680 C.ar   47  TYR47      -0.0009
     18  CD2       24.0100  -13.9840   17.1400 C.ar   47  TYR47      -0.0009
     19  CE1       24.7080  -13.1130   19.6430 C.ar   47  TYR47       0.0417
     20  CE2       23.8880  -14.8360   18.2190 C.ar   47  TYR47       0.0417
     21  CZ        24.2450  -14.3930   19.4760 C.ar   47  TYR47       0.1957
     22  OH        24.1250  -15.2360   20.5600 O.3    47  TYR47      -0.2866
     23  N         26.1350  -16.5590   14.8570 N.3    50  TRP50      -0.1241
     24  CA        25.1780  -16.9000   13.8090 C.3    50  TRP50       0.1605
     25  C         25.6740  -16.3110   12.4900 C.2    50  TRP50       0.2264
     26  O         24.9670  -16.2530   11.4830 O.2    50  TRP50      -0.2867
     27  CB        23.7880  -16.3820   14.1720 C.3    50  TRP50       0.0550
     28  CG        23.1630  -17.0600   15.3580 C.ar   50  TRP50       0.0003
     29  CD1       23.7210  -18.0580   16.1160 C.ar   50  TRP50       0.0946
     30  CD2       21.8790  -16.8150   15.9390 C.ar   50  TRP50       0.0152
     31  NE1       22.8720  -18.4390   17.1130 N.ar   50  TRP50      -0.2442
     32  CE2       21.7290  -17.6870   17.0260 C.ar   50  TRP50       0.0810
     33  CE3       20.8410  -15.9270   15.6300 C.ar   50  TRP50       0.0012
     34  CZ2       20.5830  -17.7060   17.8130 C.ar   50  TRP50       0.0191
     35  CZ3       19.7020  -15.9460   16.4100 C.ar   50  TRP50       0.0001
     36  CH2       19.5900  -16.8270   17.4810 C.ar   50  TRP50       0.0015
     37  N         26.2690  -13.1820   11.7130 N.3    52  LYS52      -0.1245
     38  CA        25.6140  -11.9580   11.2630 C.3    52  LYS52       0.1561
     39  C         26.5910  -10.7890   11.3340 C.2    52  LYS52       0.2260
     40  O         27.1190  -10.4740   12.4090 O.2    52  LYS52      -0.2867
     41  CB        24.3800  -11.6810   12.1160 C.3    52  LYS52       0.0271
     42  CG        23.4830  -10.5570   11.6250 C.3    52  LYS52       0.0035
     43  CD        22.6590   -9.9640   12.7550 C.3    52  LYS52       0.0206
     44  CE        21.1610  -10.0900   12.5620 C.3    52  LYS52       0.1093
     45  NZ        20.4180  -10.1780   13.8520 N.3    52  LYS52      -0.1314
     46  N         28.5640   -9.4430   22.7740 N.3    92  TRP92      -0.1227
     47  CA        27.8200  -10.4440   22.0370 C.3    92  TRP92       0.1737
     48  C         28.2180  -11.8410   22.5070 C.2    92  TRP92       0.2595
     49  O         27.5350  -12.8260   22.2040 O.2    92  TRP92      -0.2718
     50  CB        28.0160  -10.2870   20.5260 C.3    92  TRP92       0.0564
     51  CG        29.4310  -10.3510   20.0490 C.ar   92  TRP92       0.0003
     52  CD1       30.2280   -9.2750   19.7720 C.ar   92  TRP92       0.0946
     53  CD2       30.2280  -11.5130   19.7810 C.ar   92  TRP92       0.0152
     54  NE1       31.4690   -9.6880   19.3550 N.ar   92  TRP92      -0.2442
     55  CE2       31.4860  -11.0600   19.3550 C.ar   92  TRP92       0.0810
     56  CE3       29.9890  -12.8900   19.8680 C.ar   92  TRP92       0.0012
     57  CZ2       32.5260  -11.9210   19.0090 C.ar   92  TRP92       0.0191
     58  CZ3       31.0260  -13.7430   19.5210 C.ar   92  TRP92       0.0001
     59  CH2       32.2600  -13.2580   19.1020 C.ar   92  TRP92       0.0015
     60  N         29.3170  -11.9510   23.2490 N.am   93  ARG93      -0.1966
     61  CA        29.7650  -13.2660   23.7090 C.3    93  ARG93       0.1729
     62  C         28.9420  -13.7770   24.8760 C.2    93  ARG93       0.2616
     63  O         28.5570  -14.9430   24.9090 O.2    93  ARG93      -0.2715
     64  CB        31.2510  -13.2200   24.1180 C.3    93  ARG93       0.0348
     65  CG        32.1660  -12.8510   22.9640 C.3    93  ARG93       0.0492
     66  CD        33.6300  -12.7970   23.3950 C.3    93  ARG93       0.2205
     67  NE        34.5040  -12.9330   22.2250 N.pl3  93  ARG93      -0.0865
     68  CZ        34.8760  -14.1080   21.7080 C.cat  93  ARG93       0.5346
     69  NH1       35.6670  -14.0930   20.6470 N.pl3  93  ARG93       0.1354
     70  NH2       34.4930  -15.2660   22.2230 N.pl3  93  ARG93       0.1354
     71  N         28.6780  -12.9070   25.8500 N.am   94  GLU94      -0.1963
     72  CA        28.0760  -13.3190   27.1000 C.3    94  GLU94       0.1733
     73  C         26.5900  -13.0250   27.2210 C.2    94  GLU94       0.2616
     74  O         25.7980  -13.9170   27.5350 O.2    94  GLU94      -0.2715
     75  CB        28.7660  -12.6160   28.2970 C.3    94  GLU94       0.0429
     76  CG        28.2740  -13.1940   29.6140 C.3    94  GLU94       0.1163
     77  CD        28.5650  -12.3360   30.8240 C.2    94  GLU94       0.3649
     78  OE1       29.3460  -11.3630   30.7150 O.co2  94  GLU94      -0.2457
     79  OE2       27.9960  -12.6400   31.8980 O.co2  94  GLU94      -0.2457
     80  N         26.1920  -11.7670   27.0210 N.am   95  ASN95      -0.1958
     81  CA        24.8320  -11.4150   27.4200 C.3    95  ASN95       0.1819
     82  C         24.2220  -10.2520   26.6520 C.2    95  ASN95       0.2621
     83  O         23.1990   -9.7400   27.0990 O.2    95  ASN95      -0.2715
     84  CB        24.8100  -11.0270   28.9060 C.3    95  ASN95       0.1195
     85  CG        25.8120   -9.9430   29.2500 C.2    95  ASN95       0.2630
     86  OD1       26.4480   -9.3610   28.3740 O.2    95  ASN95      -0.2716
     87  ND2       25.9430   -9.6700   30.5480 N.am   95  ASN95      -0.0877
     88  N         24.8090   -9.8330   25.5490 N.am   96  LEU96      -0.1977
     89  CA        24.3190   -8.6620   24.8280 C.3    96  LEU96       0.1596
     90  C         24.4190   -7.3770   25.6340 C.2    96  LEU96       0.2287
     91  O         23.6300   -6.4380   25.4650 O.2    96  LEU96      -0.2864
     92  CB        22.8760   -8.8910   24.3960 C.3    96  LEU96       0.0297
     93  CG        22.5650  -10.0550   23.4630 C.3    96  LEU96       0.0022
     94  CD1       21.1400   -9.8920   22.9340 C.3    96  LEU96       0.0001
     95  CD2       23.5450  -10.2010   22.3120 C.3    96  LEU96       0.0001
     96  N         20.7610  -15.7550   32.4450 N.3   173  ILE173     -0.1245
     97  CA        21.6530  -14.7640   31.8670 C.3   173  ILE173      0.1561
     98  C         22.0380  -13.6950   32.8820 C.2   173  ILE173      0.2260
     99  O         21.2120  -13.2240   33.6680 O.2   173  ILE173     -0.2867
    100  CB        21.0310  -14.0640   30.6450 C.3   173  ILE173      0.0252
    101  CG1       20.6590  -15.0390   29.5270 C.3   173  ILE173      0.0019
    102  CG2       21.9450  -12.9640   30.1320 C.3   173  ILE173      0.0019
    103  CD1       21.7960  -15.3150   28.5660 C.3   173  ILE173      0.0001
    104  N          4.4360   -8.8280   24.7760 N.3   193  ASP193     -0.1225
    105  CA         5.8630   -8.9230   24.6590 C.3   193  ASP193      0.1805
    106  C          6.2720   -8.5140   23.2460 C.2   193  ASP193      0.2598
    107  O          5.4440   -8.5330   22.3420 O.2   193  ASP193     -0.2718
    108  CB         6.3570  -10.3500   24.8810 C.3   193  ASP193      0.1424
    109  CG         7.8260  -10.4420   25.2350 C.2   193  ASP193      0.3668
    110  OD1        8.5430   -9.4230   25.2250 O.co2 193  ASP193     -0.2456
    111  OD2        8.2570  -11.5730   25.5340 O.co2 193  ASP193     -0.2456
    112  N          7.5480   -8.1650   23.1400 N.am  194  ALA194     -0.1966
    113  CA         8.1980   -8.1240   21.8560 C.3   194  ALA194      0.1728
    114  C          8.4980   -9.5710   21.4340 C.2   194  ALA194      0.2616
    115  O          8.4120  -10.4450   22.2900 O.2   194  ALA194     -0.2715
    116  CB         9.4860   -7.3220   21.9140 C.3   194  ALA194      0.0334
    117  N          8.8500   -9.7560   20.1810 N.am  195  CYS195     -0.1954
    118  CA         9.1560  -11.0760   19.6250 C.3   195  CYS195      0.1843
    119  C         10.0710  -10.9460   18.4240 C.2   195  CYS195      0.2625
    120  O         10.5320   -9.8430   18.1100 O.2   195  CYS195     -0.2714
    121  CB         7.8460  -11.7560   19.2400 C.3   195  CYS195      0.0997
    122  SG         7.9520  -13.5650   19.0860 S.3   195  CYS195     -0.0797
    123  N         10.3640  -12.0440   17.7300 N.am  196  GLU196     -0.1963
    124  CA        11.2140  -12.0180   16.5520 C.3   196  GLU196      0.1733
    125  C         10.7260  -10.9910   15.5340 C.2   196  GLU196      0.2616
    126  O          9.5370  -10.9890   15.2310 O.2   196  GLU196     -0.2715
    127  CB        11.2500  -13.3970   15.8900 C.3   196  GLU196      0.0429
    128  CG        12.6180  -14.0600   15.8930 C.3   196  GLU196      0.1163
    129  CD        13.4800  -13.4780   14.7830 C.2   196  GLU196      0.3649
    130  OE1       13.1080  -12.3800   14.3190 O.co2 196  GLU196     -0.2457
    131  OE2       14.4810  -14.1120   14.3970 O.co2 196  GLU196     -0.2457
    132  N         11.6370  -10.1730   15.0440 N.am  197  GLY197     -0.1955
    133  CA        11.4350   -9.0660   14.1570 C.3   197  GLY197      0.1869
    134  C         11.2080   -7.7240   14.8330 C.2   197  GLY197      0.2309
    135  O         11.2290   -6.7300   14.1110 O.2   197  GLY197     -0.2863
    136  N         13.1910   -6.6990   17.4200 N.3   199  SER199     -0.1217
    137  CA        14.5360   -6.3280   17.8380 C.3   199  SER199      0.1889
    138  C         14.9520   -4.9430   17.3640 C.2   199  SER199      0.2288
    139  O         14.7130   -4.5760   16.2080 O.2   199  SER199     -0.2866
    140  CB        15.5780   -7.3260   17.2780 C.3   199  SER199      0.2089
    141  OG        15.6360   -8.5150   18.0320 O.3   199  SER199     -0.2183
    142  N         14.5170   -2.6710   22.1220 N.3   219  VAL219     -0.1231
    143  CA        14.2800   -4.1140   22.2170 C.3   219  VAL219      0.1692
    144  C         15.5940   -4.8750   22.0090 C.2   219  VAL219      0.2593
    145  O         16.1650   -4.7790   20.9220 O.2   219  VAL219     -0.2718
    146  CB        13.2330   -4.5870   21.2000 C.3   219  VAL219      0.0266
    147  CG1       12.9540   -6.0700   21.4380 C.3   219  VAL219      0.0020
    148  CG2       11.9410   -3.7760   21.2630 C.3   219  VAL219      0.0020
    149  N         16.0300   -5.5870   23.0400 N.am  220  SER220     -0.1938
    150  CA        17.2850   -6.3100   23.0760 C.3   220  SER220      0.2055
    151  C         17.1640   -7.8300   23.0640 C.2   220  SER220      0.2643
    152  O         17.6060   -8.4430   22.0850 O.2   220  SER220     -0.2714
    153  CB        18.0950   -5.9370   24.3290 C.3   220  SER220      0.2130
    154  OG        19.4140   -6.4550   24.2020 O.3   220  SER220     -0.2179
    155  N         16.6220   -8.4240   24.1210 N.am  221  TRP221     -0.1959
    156  CA        16.5030   -9.8860   24.1490 C.3   221  TRP221      0.1771
    157  C         15.4270  -10.3990   25.0900 C.2   221  TRP221      0.2620
    158  O         14.7520   -9.6780   25.8050 O.2   221  TRP221     -0.2715
    159  CB        17.8380  -10.5360   24.5180 C.3   221  TRP221      0.0590
    160  CG        18.3530  -10.1550   25.8580 C.ar  221  TRP221      0.0006
    161  CD1       19.0800   -9.0350   26.1550 C.ar  221  TRP221      0.0946
    162  CD2       18.1880  -10.8720   27.0880 C.ar  221  TRP221      0.0152
    163  NE1       19.3720   -9.0270   27.5010 N.ar  221  TRP221     -0.2442
    164  CE2       18.8430  -10.1340   28.0890 C.ar  221  TRP221      0.0810
    165  CE3       17.5590  -12.0660   27.4450 C.ar  221  TRP221      0.0012
    166  CZ2       18.8940  -10.5340   29.4280 C.ar  221  TRP221      0.0191
    167  CZ3       17.6050  -12.4680   28.7690 C.ar  221  TRP221      0.0001
    168  CH2       18.2660  -11.7080   29.7430 C.ar  221  TRP221      0.0015
    169  N         15.2810  -11.7240   25.0570 N.am  222  GLY222     -0.1940
    170  CA        14.3680  -12.4390   25.9310 C.3   222  GLY222      0.2014
    171  C         14.4380  -13.9170   25.5550 C.2   222  GLY222      0.2639
    172  O         15.2310  -14.3240   24.7080 O.2   222  GLY222     -0.2714
    173  N         13.5860  -14.6820   26.1950 N.am  223  GLU223     -0.1963
    174  CA        13.5610  -16.1210   25.9560 C.3   223  GLU223      0.1733
    175  C         12.1360  -16.4730   25.5390 C.2   223  GLU223      0.2617
    176  O         11.1880  -16.3960   26.3230 O.2   223  GLU223     -0.2715
    177  CB        14.0620  -16.8280   27.1990 C.3   223  GLU223      0.0429
    178  CG        15.2220  -16.1350   27.8820 C.3   223  GLU223      0.1163
    179  CD        15.4410  -16.5410   29.3240 C.2   223  GLU223      0.3649
    180  OE1       15.6640  -15.6380   30.1610 O.co2 223  GLU223     -0.2457
    181  OE2       15.3900  -17.7590   29.6170 O.co2 223  GLU223     -0.2457
    182  N         12.0190  -16.8400   24.2770 N.am  224  GLY224     -0.1940
    183  CA        10.7420  -17.0060   23.6000 C.3   224  GLY224      0.2014
    184  C         10.0020  -15.6830   23.5150 C.2   224  GLY224      0.2639
    185  O         10.6110  -14.6140   23.5060 O.2   224  GLY224     -0.2714
    186  N          8.6720  -15.7390   23.4740 N.am  225  CYS225     -0.1967
    187  CA         7.8930  -14.5170   23.4440 C.3   225  CYS225      0.1712
    188  C          6.6190  -14.6880   24.2740 C.2   225  CYS225      0.2296
    189  O          5.9140  -15.6900   24.1490 O.2   225  CYS225     -0.2864
    190  CB         7.5380  -14.1130   22.0130 C.3   225  CYS225      0.0983
    191  SG         8.8940  -14.0750   20.8280 S.3   225  CYS225     -0.0798
    192  N         10.2730  -12.1340   30.8630 N.3   231  TYR231     -0.1227
    193  CA        10.2210  -10.7070   30.6270 C.3   231  TYR231      0.1736
    194  C         11.1290  -10.2990   29.4740 C.2   231  TYR231      0.2596
    195  O         12.1930  -10.8800   29.2710 O.2   231  TYR231     -0.2718
    196  CB        10.6400   -9.8870   31.8780 C.3   231  TYR231      0.0548
    197  CG         9.7380  -10.2750   33.0440 C.ar  231  TYR231     -0.0200
    198  CD1        8.5190   -9.6580   33.2640 C.ar  231  TYR231     -0.0009
    199  CD2       10.1380  -11.3020   33.8940 C.ar  231  TYR231     -0.0009
    200  CE1        7.6960  -10.0260   34.3250 C.ar  231  TYR231      0.0417
    201  CE2        9.3320  -11.6790   34.9530 C.ar  231  TYR231      0.0417
    202  CZ         8.1250  -11.0420   35.1560 C.ar  231  TYR231      0.1957
    203  OH         7.3410  -11.4380   36.2200 O.3   231  TYR231     -0.2866
    204  N         10.6860   -9.2820   28.7460 N.am  232  GLY232     -0.1942
    205  CA        11.5080   -8.7050   27.6850 C.3   232  GLY232      0.2014
    206  C         12.6220   -7.8710   28.3130 C.2   232  GLY232      0.2639
    207  O         12.3880   -7.1680   29.3020 O.2   232  GLY232     -0.2714
    208  N         13.8090   -7.9600   27.7140 N.am  233  PHE233     -0.1959
    209  CA        14.9240   -7.1310   28.1600 C.3   233  PHE233      0.1771
    210  C         15.2230   -6.0500   27.1330 C.2   233  PHE233      0.2619
    211  O         15.1220   -6.3180   25.9470 O.2   233  PHE233     -0.2715
    212  CB        16.1590   -7.9950   28.4080 C.3   233  PHE233      0.0574
    213  CG        16.0060   -8.7380   29.7320 C.ar  233  PHE233     -0.0200
    214  CD1       15.2150   -9.8580   29.8240 C.ar  233  PHE233     -0.0042
    215  CD2       16.6580   -8.2790   30.8650 C.ar  233  PHE233     -0.0042
    216  CE1       15.0990  -10.5250   31.0220 C.ar  233  PHE233     -0.0003
    217  CE2       16.5720   -8.9490   32.0680 C.ar  233  PHE233     -0.0003
    218  CZ        15.7730  -10.0840   32.1350 C.ar  233  PHE233     -0.0000
    219  N         15.5690   -4.8800   27.6410 N.am  234  TYR234     -0.1974
    220  CA        15.7760   -3.6730   26.8610 C.3   234  TYR234      0.1639
    221  C         17.0850   -3.0120   27.2130 C.2   234  TYR234      0.2290
    222  O         17.5080   -2.9140   28.3640 O.2   234  TYR234     -0.2864
    223  CB        14.6110   -2.6930   27.1090 C.3   234  TYR234      0.0560
    224  CG        13.2910   -3.3510   26.7640 C.ar  234  TYR234     -0.0198
    225  CD1       12.5560   -4.1250   27.6710 C.ar  234  TYR234     -0.0009
    226  CD2       12.7840   -3.1820   25.4820 C.ar  234  TYR234     -0.0009
    227  CE1       11.3600   -4.6980   27.2840 C.ar  234  TYR234      0.0417
    228  CE2       11.5950   -3.7560   25.1010 C.ar  234  TYR234      0.0417
    229  CZ        10.8840   -4.5160   26.0080 C.ar  234  TYR234      0.1957
    230  OH         9.6920   -5.0740   25.5830 O.3   234  TYR234     -0.2866
@<TRIPOS>BOND
     1    38    39    1
     2    38    37    1
     3    38    41    1
     4    39    40    2
     5    26    25    2
     6    42    41    1
     7    42    43    1
     8    25    24    1
     9    44    43    1
    10    44    45    1
    11    24    27    1
    12    24    23    1
    13   135   134    2
    14   133   134    1
    15   133   132    1
    16    27    28    1
    17   130   129   ar
    18   131   129   ar
    19    14    13    2
    20   129   128    1
    21    11    12    1
    22   132   125   am
    23   126   125    2
    24    28    30   ar
    25    28    29   ar
    26    13    12    1
    27     4     3    2
    28   125   124    1
    29    33    30   ar
    30    33    35   ar
    31   127   128    1
    32   127   124    1
    33    12    15    1
    34    30    32   ar
    35    29    31   ar
    36    15    16    1
    37   139   138    2
    38     3     2    1
    39    35    36   ar
    40   124   123    1
    41    32    31   ar
    42    32    34   ar
    43    18    16   ar
    44    18    20   ar
    45   140   137    1
    46   140   141    1
    47    16    17   ar
    48   138   137    1
    49   136   137    1
    50    36    34   ar
    51     2     1    1
    52     2     5    1
    53   123   119   am
    54     8    10   ar
    55     8     6   ar
    56   120   119    2
    57    20    21   ar
    58   119   118    1
    59    17    19   ar
    60    10     9   ar
    61     5     6    1
    62     6     7   ar
    63    57    59   ar
    64    57    55   ar
    65   122   121    1
    66   122   191    1
    67    59    58   ar
    68   121   118    1
    69    54    55   ar
    70    54    52   ar
    71    55    53   ar
    72    21    19   ar
    73    21    22    1
    74    58    56   ar
    75     9     7   ar
    76   118   117    1
    77    52    51   ar
    78    53    56   ar
    79    53    51   ar
    80    51    50    1
    81   117   114   am
    82    50    47    1
    83    69    68    1
    84   191   190    1
    85   145   144    2
    86   146   148    1
    87   146   147    1
    88   146   143    1
    89   114   113    1
    90   114   115    2
    91    68    70    1
    92    68    67    2
    93   113   116    1
    94   113   112    1
    95   144   143    1
    96   144   149   am
    97   190   187    1
    98    47    48    1
    99    47    46    1
   100   152   151    2
   101   142   143    1
   102    49    48    2
   103    67    66    1
   104    95    93    1
   105   107   106    2
   106    48    60   am
   107    94    93    1
   108    65    66    1
   109    65    64    1
   110   149   150    1
   111   151   150    1
   112   151   155   am
   113   150   153    1
   114   112   106   am
   115   106   105    1
   116    60    61    1
   117   187   186    1
   118   187   188    1
   119    93    92    1
   120   186   184   am
   121   185   184    2
   122   184   183    1
   123   183   182    1
   124    61    64    1
   125    61    62    1
   126   155   156    1
   127   189   188    2
   128   156   159    1
   129   156   157    1
   130   154   153    1
   131   182   175   am
   132    92    89    1
   133   159   160    1
   134   105   104    1
   135   105   108    1
   136   172   171    2
   137    89    88    1
   138    89    90    1
   139    62    63    2
   140    62    71   am
   141   108   109    1
   142   169   157   am
   143   169   170    1
   144   157   158    2
   145   228   226   ar
   146   228   229   ar
   147   110   109   ar
   148   109   111   ar
   149    91    90    2
   150   226   224   ar
   151   175   174    1
   152   175   176    2
   153    88    82   am
   154   171   170    1
   155   171   173   am
   156   230   229    1
   157    71    72    1
   158   160   161   ar
   159   160   162   ar
   160   211   210    2
   161   174   173    1
   162   174   177    1
   163   229   227   ar
   164   161   163   ar
   165    82    83    2
   166    82    81    1
   167   224   223    1
   168   224   225   ar
   169   220   223    1
   170   220   221    1
   171   220   219    1
   172    80    73   am
   173    80    81    1
   174   162   165   ar
   175   162   164   ar
   176    72    73    1
   177    72    75    1
   178   210   219   am
   179   210   209    1
   180   177   178    1
   181   221   222    2
   182    73    74    2
   183   227   225   ar
   184    81    84    1
   185   165   167   ar
   186   163   164   ar
   187   205   206    1
   188   205   204    1
   189   208   209    1
   190   208   206   am
   191   178   179    1
   192   164   166   ar
   193   209   212    1
   194    75    76    1
   195   206   207    2
   196    86    85    2
   197   212   213    1
   198   103   101    1
   199   204   194   am
   200   167   168   ar
   201    84    85    1
   202    85    87   am
   203   195   194    2
   204   179   181   ar
   205   179   180   ar
   206   166   168   ar
   207   194   193    1
   208   101   100    1
   209    76    77    1
   210   213   214   ar
   211   213   215   ar
   212   214   216   ar
   213   102   100    1
   214   193   192    1
   215   193   196    1
   216   100    97    1
   217    78    77   ar
   218    77    79   ar
   219   215   217   ar
   220   216   218   ar
   221    97    96    1
   222    97    98    1
   223   196   197    1
   224   217   218   ar
   225    98    99    2
   226   197   198   ar
   227   197   199   ar
   228   198   200   ar
   229   199   201   ar
   230   200   202   ar
   231   201   202   ar
   232   202   203    1
