@<TRIPOS>MOLECULE
tmp/1ypkB01.pdb
 237 238 0 0 0
SMALL
GASTEIGER

@<TRIPOS>ATOM
      1  N         22.5600   -5.9880   18.3000 N.3    43  HIS43      -0.1241
      2  CA        22.4170   -7.3600   17.8280 C.3    43  HIS43       0.1621
      3  C         21.6930   -7.4540   16.4920 C.2    43  HIS43       0.2264
      4  O         21.6000   -8.5030   15.8460 O.2    43  HIS43      -0.2867
      5  CB        21.6690   -8.2130   18.8630 C.3    43  HIS43       0.0745
      6  CG        20.1880   -8.0700   18.9360 C.ar   43  HIS43       0.0817
      7  ND1       19.5950   -7.3410   19.9600 N.ar   43  HIS43      -0.2268
      8  CD2       19.1350   -8.5500   18.2180 C.ar   43  HIS43       0.1154
      9  CE1       18.2830   -7.3660   19.8340 C.ar   43  HIS43       0.1986
     10  NE2       17.9790   -8.0910   18.7720 N.ar   43  HIS43      -0.2212
     11  N         25.9880  -10.1830   15.2460 N.3    47  TYR47      -0.1241
     12  CA        25.8270  -11.3200   16.1390 C.3    47  TYR47       0.1605
     13  C         26.6230  -12.4840   15.5590 C.2    47  TYR47       0.2264
     14  O         26.0470  -13.3870   14.9880 O.2    47  TYR47      -0.2867
     15  CB        24.3700  -11.7250   16.3920 C.3    47  TYR47       0.0534
     16  CG        24.3320  -12.7240   17.5450 C.ar   47  TYR47      -0.0201
     17  CD1       24.7550  -12.3200   18.8120 C.ar   47  TYR47      -0.0009
     18  CD2       23.9150  -14.0230   17.3840 C.ar   47  TYR47      -0.0009
     19  CE1       24.7360  -13.2070   19.8780 C.ar   47  TYR47       0.0417
     20  CE2       23.9020  -14.9050   18.4510 C.ar   47  TYR47       0.0417
     21  CZ        24.3160  -14.4960   19.6920 C.ar   47  TYR47       0.1957
     22  OH        24.3030  -15.3890   20.7470 O.3    47  TYR47      -0.2866
     23  N         25.8820  -16.3840   15.0320 N.3    50  TRP50      -0.1241
     24  CA        24.9550  -16.7040   13.9580 C.3    50  TRP50       0.1605
     25  C         25.4090  -16.1450   12.6090 C.2    50  TRP50       0.2264
     26  O         24.6010  -16.0490   11.6790 O.2    50  TRP50      -0.2867
     27  CB        23.5550  -16.1520   14.2830 C.3    50  TRP50       0.0550
     28  CG        22.8960  -16.8550   15.4160 C.ar   50  TRP50       0.0003
     29  CD1       23.4550  -17.8490   16.1700 C.ar   50  TRP50       0.0946
     30  CD2       21.5780  -16.6450   15.9380 C.ar   50  TRP50       0.0152
     31  NE1       22.5550  -18.2580   17.1200 N.ar   50  TRP50      -0.2442
     32  CE2       21.3990  -17.5400   17.0000 C.ar   50  TRP50       0.0810
     33  CE3       20.5320  -15.7880   15.5990 C.ar   50  TRP50       0.0012
     34  CZ2       20.2200  -17.6130   17.7440 C.ar   50  TRP50       0.0191
     35  CZ3       19.3600  -15.8530   16.3320 C.ar   50  TRP50       0.0001
     36  CH2       19.2170  -16.7560   17.3830 C.ar   50  TRP50       0.0015
     37  N         26.0650  -13.1670   11.7770 N.3    52  LYS52      -0.1245
     38  CA        25.4670  -11.8940   11.4130 C.3    52  LYS52       0.1561
     39  C         26.4600  -10.7550   11.6290 C.2    52  LYS52       0.2260
     40  O         27.0400  -10.5030   12.6840 O.2    52  LYS52      -0.2867
     41  CB        24.1590  -11.6600   12.1890 C.3    52  LYS52       0.0271
     42  CG        23.5170  -10.3110   11.9340 C.3    52  LYS52       0.0035
     43  CD        22.5130   -9.9290   13.0090 C.3    52  LYS52       0.0206
     44  CE        21.2640  -10.7780   13.0350 C.3    52  LYS52       0.1093
     45  NZ        20.2800  -10.3430   14.0750 N.3    52  LYS52      -0.1314
     46  N         28.2010   -9.3760   22.9880 N.3    92  TRP92      -0.1227
     47  CA        27.5260  -10.4090   22.2460 C.3    92  TRP92       0.1737
     48  C         27.9820  -11.7940   22.6880 C.2    92  TRP92       0.2598
     49  O         27.2900  -12.7830   22.4340 O.2    92  TRP92      -0.2717
     50  CB        27.7530  -10.2600   20.7440 C.3    92  TRP92       0.0564
     51  CG        29.1590  -10.2200   20.2510 C.ar   92  TRP92       0.0003
     52  CD1       29.8930   -9.1030   19.9880 C.ar   92  TRP92       0.0946
     53  CD2       30.0050  -11.3490   19.9570 C.ar   92  TRP92       0.0152
     54  NE1       31.1590   -9.4680   19.5510 N.ar   92  TRP92      -0.2442
     55  CE2       31.2360  -10.8370   19.5230 C.ar   92  TRP92       0.0810
     56  CE3       29.8300  -12.7300   20.0200 C.ar   92  TRP92       0.0012
     57  CZ2       32.3110  -11.6540   19.1470 C.ar   92  TRP92       0.0191
     58  CZ3       30.8880  -13.5300   19.6500 C.ar   92  TRP92       0.0001
     59  CH2       32.1090  -13.0040   19.2210 C.ar   92  TRP92       0.0015
     60  N         29.1390  -11.8690   23.3540 N.am   93  ARG93      -0.1920
     61  CA        29.5700  -13.2310   23.7360 C.3    93  ARG93       0.1945
     62  C         28.7290  -13.7860   24.8710 C.2    93  ARG93       0.2659
     63  O         28.4780  -14.9950   24.9250 O.2    93  ARG93      -0.2711
     64  CB        31.0610  -13.2120   24.0740 C.2    93  ARG93       0.0033
     65  CG        32.0070  -12.8110   22.9740 C.2    93  ARG93       0.0179
     66  CD        33.4950  -12.9580   23.3010 C.3    93  ARG93       0.2464
     67  NE        34.2840  -12.9720   22.0650 N.pl3  93  ARG93      -0.0815
     68  CZ        34.6950  -14.1130   21.4890 C.cat  93  ARG93       0.5349
     69  NH1       35.3950  -14.0620   20.3740 N.pl3  93  ARG93       0.1354
     70  NH2       34.3730  -15.2470   22.0850 N.pl3  93  ARG93       0.1354
     71  N         28.2710  -12.9440   25.7920 N.am   94  GLU94      -0.1960
     72  CA        27.6360  -13.3510   27.0290 C.3    94  GLU94       0.1733
     73  C         26.1530  -13.0330   27.1090 C.2    94  GLU94       0.2616
     74  O         25.3710  -13.9720   26.9900 O.2    94  GLU94      -0.2715
     75  CB        28.3050  -12.6780   28.2560 C.3    94  GLU94       0.0429
     76  CG        27.6330  -13.1490   29.5340 C.3    94  GLU94       0.1163
     77  CD        28.1040  -12.4970   30.8100 C.2    94  GLU94       0.3649
     78  OE1       28.9400  -11.5710   30.7830 O.co2  94  GLU94      -0.2457
     79  OE2       27.6180  -12.9290   31.8830 O.co2  94  GLU94      -0.2457
     80  N         25.7980  -11.7600   27.3170 N.am   95  ASN95      -0.1958
     81  CA        24.4050  -11.4540   27.6350 C.3    95  ASN95       0.1819
     82  C         23.8390  -10.2600   26.8800 C.2    95  ASN95       0.2621
     83  O         22.7660   -9.7700   27.2570 O.2    95  ASN95      -0.2715
     84  CB        24.2930  -11.1740   29.1350 C.3    95  ASN95       0.1195
     85  CG        25.2580  -10.0980   29.5850 C.2    95  ASN95       0.2630
     86  OD1       25.9580   -9.5430   28.7390 O.2    95  ASN95      -0.2716
     87  ND2       25.2820   -9.8160   30.8880 N.am   95  ASN95      -0.0877
     88  N         24.5110   -9.7800   25.8310 N.am   96  LEU96      -0.1977
     89  CA        24.0230   -8.6450   25.0530 C.3    96  LEU96       0.1596
     90  C         24.0310   -7.3710   25.8930 C.2    96  LEU96       0.2287
     91  O         23.2790   -6.4160   25.7210 O.2    96  LEU96      -0.2864
     92  CB        22.6160   -8.8600   24.4890 C.3    96  LEU96       0.0297
     93  CG        22.3820  -10.0660   23.5980 C.3    96  LEU96       0.0022
     94  CD1       20.9230  -10.1660   23.1550 C.3    96  LEU96       0.0001
     95  CD2       23.2870  -10.0160   22.3740 C.3    96  LEU96       0.0001
     96  N         20.0450  -15.8770   32.8910 N.3   172  ILE172     -0.1245
     97  CA        20.9620  -14.9070   32.2730 C.3   172  ILE172      0.1561
     98  C         21.4050  -13.8260   33.2510 C.2   172  ILE172      0.2260
     99  O         20.6250  -13.3640   34.1050 O.2   172  ILE172     -0.2867
    100  CB        20.2860  -14.2660   31.0420 C.3   172  ILE172      0.0252
    101  CG1       19.7740  -15.2790   30.0230 C.3   172  ILE172      0.0019
    102  CG2       21.2350  -13.2730   30.3940 C.3   172  ILE172      0.0019
    103  CD1       20.7450  -15.6120   28.9150 C.3   172  ILE172      0.0001
    104  N          4.0630   -8.8630   24.8420 N.3   192  ASP192     -0.1225
    105  CA         5.5110   -8.9350   24.7430 C.3   192  ASP192      0.1805
    106  C          5.9360   -8.5560   23.3350 C.2   192  ASP192      0.2598
    107  O          5.1340   -8.5950   22.3980 O.2   192  ASP192     -0.2718
    108  CB         5.9870  -10.3480   25.0770 C.3   192  ASP192      0.1424
    109  CG         7.4420  -10.4550   25.4620 C.2   192  ASP192      0.3668
    110  OD1        8.1200   -9.4160   25.6080 O.co2 192  ASP192     -0.2456
    111  OD2        7.9100  -11.6150   25.6250 O.co2 192  ASP192     -0.2456
    112  N          7.2090   -8.1850   23.2330 N.am  193  ALA193     -0.1966
    113  CA         7.8750   -8.0550   21.9570 C.3   193  ALA193      0.1728
    114  C          8.1870   -9.4800   21.4750 C.2   193  ALA193      0.2616
    115  O          8.0290  -10.3680   22.3110 O.2   193  ALA193     -0.2715
    116  CB         9.1620   -7.2570   22.0620 C.3   193  ALA193      0.0334
    117  N          8.6240   -9.6730   20.2550 N.am  194  CYS194     -0.1954
    118  CA         8.9530  -11.0060   19.7440 C.3   194  CYS194      0.1843
    119  C          9.8880  -10.8710   18.5530 C.2   194  CYS194      0.2625
    120  O         10.2390   -9.7280   18.2440 O.2   194  CYS194     -0.2714
    121  CB         7.6720  -11.7510   19.3900 C.3   194  CYS194      0.0997
    122  SG         7.8100  -13.5610   19.3070 S.3   194  CYS194     -0.0797
    123  N         10.2730  -11.9800   17.9180 N.am  195  GLU195     -0.1977
    124  CA        11.1280  -11.9190   16.7440 C.3   195  GLU195      0.1602
    125  C         10.5760  -10.9080   15.7330 C.2   195  GLU195      0.2287
    126  O          9.4010  -10.9210   15.3810 O.2   195  GLU195     -0.2864
    127  CB        11.2750  -13.2650   16.0080 C.3   195  GLU195      0.0415
    128  CG        12.6800  -13.5430   15.5090 C.3   195  GLU195      0.1163
    129  CD        12.9350  -13.6250   14.0240 C.2   195  GLU195      0.3649
    130  OE1       13.4420  -12.6340   13.4370 O.co2 195  GLU195     -0.2457
    131  OE2       12.6630  -14.6860   13.4060 O.co2 195  GLU195     -0.2457
    132  N         12.8730   -6.6170   17.6860 N.3   198  SER198     -0.1217
    133  CA        14.2320   -6.3970   18.1160 C.3   198  SER198      0.1889
    134  C         14.6740   -5.0250   17.5770 C.2   198  SER198      0.2288
    135  O         14.3880   -4.7970   16.4050 O.2   198  SER198     -0.2866
    136  CB        15.2700   -7.4230   17.6080 C.3   198  SER198      0.2089
    137  OG        15.3480   -8.6430   18.2470 O.3   198  SER198     -0.2183
    138  N         14.2120   -2.7290   22.4030 N.3   218  VAL218     -0.1231
    139  CA        13.9150   -4.1640   22.4620 C.3   218  VAL218      0.1692
    140  C         15.2120   -4.9590   22.2600 C.2   218  VAL218      0.2593
    141  O         15.7910   -4.8990   21.1650 O.2   218  VAL218     -0.2718
    142  CB        12.8930   -4.5660   21.3850 C.3   218  VAL218      0.0266
    143  CG1       12.5950   -6.0380   21.5460 C.3   218  VAL218      0.0020
    144  CG2       11.5950   -3.7650   21.4660 C.3   218  VAL218      0.0020
    145  N         15.6430   -5.6580   23.3060 N.am  219  SER219     -0.1938
    146  CA        16.9080   -6.3720   23.2920 C.3   219  SER219      0.2055
    147  C         16.7300   -7.8800   23.2890 C.2   219  SER219      0.2643
    148  O         17.1490   -8.5360   22.3320 O.2   219  SER219     -0.2714
    149  CB        17.7390   -5.9660   24.5130 C.3   219  SER219      0.2130
    150  OG        19.0210   -6.5740   24.5050 O.3   219  SER219     -0.2179
    151  N         16.1520   -8.4690   24.3410 N.am  220  TRP220     -0.1959
    152  CA        16.0860   -9.9400   24.3020 C.3   220  TRP220      0.1771
    153  C         14.9750  -10.4760   25.1640 C.2   220  TRP220      0.2620
    154  O         14.3380   -9.7770   25.9450 O.2   220  TRP220     -0.2715
    155  CB        17.4170  -10.5370   24.7540 C.3   220  TRP220      0.0590
    156  CG        17.9050  -10.1870   26.1170 C.ar  220  TRP220      0.0006
    157  CD1       18.6560   -9.1030   26.4520 C.ar  220  TRP220      0.0946
    158  CD2       17.6950  -10.8910   27.3520 C.ar  220  TRP220      0.0152
    159  NE1       18.9340   -9.0900   27.7850 N.ar  220  TRP220     -0.2442
    160  CE2       18.3520  -10.1760   28.3720 C.ar  220  TRP220      0.0810
    161  CE3       17.0170  -12.0580   27.6830 C.ar  220  TRP220      0.0012
    162  CZ2       18.3630  -10.5700   29.7130 C.ar  220  TRP220      0.0191
    163  CZ3       17.0190  -12.4590   29.0020 C.ar  220  TRP220      0.0001
    164  CH2       17.6820  -11.7220   29.9920 C.ar  220  TRP220      0.0015
    165  N         14.7480  -11.7840   25.0170 N.am  221  GLY221     -0.1940
    166  CA        13.7760  -12.4580   25.8790 C.3   221  GLY221      0.2014
    167  C         13.9420  -13.9530   25.6130 C.2   221  GLY221      0.2642
    168  O         14.7000  -14.3010   24.7070 O.2   221  GLY221     -0.2714
    169  N         13.2700  -14.7480   26.4020 N.am  222  GLU222     -0.1917
    170  CA        13.3590  -16.2200   26.3250 C.3   222  GLU222      0.1949
    171  C         11.9790  -16.6620   25.8820 C.2   222  GLU222      0.2659
    172  O         11.0150  -16.7070   26.6540 O.2   222  GLU222     -0.2711
    173  CB        13.8180  -16.7430   27.6710 C.2   222  GLU222      0.0111
    174  CG        15.2320  -16.3760   28.0560 C.2   222  GLU222      0.0838
    175  CD        15.6090  -16.6070   29.5070 C.2   222  GLU222      0.3877
    176  OE1       15.1920  -15.8570   30.4130 O.co2 222  GLU222     -0.2406
    177  OE2       16.3790  -17.5780   29.7210 O.co2 222  GLU222     -0.2406
    178  N         11.8650  -16.9280   24.5820 N.am  223  GLY223     -0.1937
    179  CA        10.5290  -17.0690   24.0070 C.3   223  GLY223      0.2014
    180  C          9.8360  -15.7240   23.8570 C.2   223  GLY223      0.2639
    181  O         10.5160  -14.7000   23.8320 O.2   223  GLY223     -0.2714
    182  N          8.5120  -15.7180   23.7630 N.am  224  CYS224     -0.1967
    183  CA         7.7080  -14.5140   23.6790 C.3   224  CYS224      0.1712
    184  C          6.4060  -14.7230   24.4550 C.2   224  CYS224      0.2296
    185  O          5.7370  -15.7230   24.2130 O.2   224  CYS224     -0.2864
    186  CB         7.3140  -14.1180   22.2430 C.3   224  CYS224      0.0983
    187  SG         8.6890  -14.0600   21.0870 S.3   224  CYS224     -0.0798
    188  N          5.7490  -15.5650   27.3510 N.3   226  ARG226     -0.1245
    189  CA         5.6420  -16.7260   28.2270 C.3   226  ARG226      0.1563
    190  C          5.3130  -16.3250   29.6480 C.2   226  ARG226      0.2260
    191  O          5.8240  -15.3430   30.1880 O.2   226  ARG226     -0.2867
    192  CB         6.9470  -17.5160   28.2480 C.3   226  ARG226      0.0307
    193  CG         7.2430  -18.2790   26.9710 C.3   226  ARG226      0.0489
    194  CD         8.5260  -19.0770   27.1990 C.3   226  ARG226      0.2205
    195  NE         9.1080  -19.5560   25.9500 N.pl3 226  ARG226     -0.0865
    196  CZ        10.2970  -20.1570   25.9390 C.cat 226  ARG226      0.5346
    197  NH1       10.7850  -20.5770   24.7890 N.pl3 226  ARG226      0.1354
    198  NH2       10.9560  -20.3170   27.0810 N.pl3 226  ARG226      0.1354
    199  N          9.8470  -12.2110   31.0540 N.3   230  TYR230     -0.1227
    200  CA         9.7320  -10.7930   30.8000 C.3   230  TYR230      0.1736
    201  C         10.6440  -10.3860   29.6550 C.2   230  TYR230      0.2596
    202  O         11.7000  -10.9870   29.4890 O.2   230  TYR230     -0.2718
    203  CB        10.1450   -9.9530   32.0320 C.3   230  TYR230      0.0548
    204  CG         9.2490  -10.3190   33.1970 C.ar  230  TYR230     -0.0200
    205  CD1        8.0280   -9.7020   33.3720 C.ar  230  TYR230     -0.0009
    206  CD2        9.6330  -11.3210   34.0890 C.ar  230  TYR230     -0.0009
    207  CE1        7.2100  -10.0530   34.4250 C.ar  230  TYR230      0.0417
    208  CE2        8.8130  -11.6650   35.1450 C.ar  230  TYR230      0.0417
    209  CZ         7.6020  -11.0290   35.3110 C.ar  230  TYR230      0.1957
    210  OH         6.7700  -11.3690   36.3690 O.3   230  TYR230     -0.2866
    211  N         10.2240   -9.3750   28.9000 N.am  231  GLY231     -0.1942
    212  CA        11.1060   -8.8410   27.8650 C.3   231  GLY231      0.2014
    213  C         12.1710   -7.9690   28.5010 C.2   231  GLY231      0.2639
    214  O         11.9230   -7.2920   29.5040 O.2   231  GLY231     -0.2714
    215  N         13.3600   -8.0110   27.8790 N.am  232  PHE232     -0.1959
    216  CA        14.4690   -7.1980   28.3240 C.3   232  PHE232      0.1771
    217  C         14.7910   -6.1360   27.2810 C.2   232  PHE232      0.2619
    218  O         14.6430   -6.4090   26.0920 O.2   232  PHE232     -0.2715
    219  CB        15.7050   -8.0570   28.6040 C.3   232  PHE232      0.0574
    220  CG        15.5360   -8.7950   29.9290 C.ar  232  PHE232     -0.0200
    221  CD1       14.7700   -9.9190   30.0500 C.ar  232  PHE232     -0.0042
    222  CD2       16.1670   -8.3050   31.0640 C.ar  232  PHE232     -0.0042
    223  CE1       14.5910  -10.5880   31.2460 C.ar  232  PHE232     -0.0003
    224  CE2       16.0200   -8.9840   32.2590 C.ar  232  PHE232     -0.0003
    225  CZ        15.2510  -10.1210   32.3680 C.ar  232  PHE232     -0.0000
    226  N         15.1710   -5.0040   27.8170 N.am  233  TYR233     -0.1974
    227  CA        15.3590   -3.7510   27.1350 C.3   233  TYR233      0.1639
    228  C         16.6720   -3.0930   27.5160 C.2   233  TYR233      0.2290
    229  O         17.1270   -2.9960   28.6360 O.2   233  TYR233     -0.2864
    230  CB        14.2120   -2.7720   27.4490 C.3   233  TYR233      0.0560
    231  CG        12.8980   -3.3630   26.9980 C.ar  233  TYR233     -0.0198
    232  CD1       12.1910   -4.2070   27.8560 C.ar  233  TYR233     -0.0009
    233  CD2       12.3320   -3.1210   25.7590 C.ar  233  TYR233     -0.0009
    234  CE1       11.0030   -4.7610   27.4750 C.ar  233  TYR233      0.0417
    235  CE2       11.1430   -3.6700   25.3760 C.ar  233  TYR233      0.0417
    236  CZ        10.4660   -4.4930   26.2410 C.ar  233  TYR233      0.1957
    237  OH         9.2830   -5.0710   25.8970 O.3   233  TYR233     -0.2866
@<TRIPOS>BOND
     1    38    39    1
     2    38    37    1
     3    38    41    1
     4    39    40    2
     5    26    25    2
     6    42    41    1
     7    42    43    1
     8    25    24    1
     9    43    44    1
    10    44    45    1
    11   131   129   ar
    12   130   129   ar
    13    24    27    1
    14    24    23    1
    15   129   128    1
    16    27    28    1
    17    14    13    2
    18    11    12    1
    19   126   125    2
    20    28    30   ar
    21    28    29   ar
    22   128   127    1
    23    13    12    1
    24    33    30   ar
    25    33    35   ar
    26   125   124    1
    27     4     3    2
    28    30    32   ar
    29   127   124    1
    30    12    15    1
    31    29    31   ar
    32    35    36   ar
    33    15    16    1
    34   135   134    2
    35     3     2    1
    36   124   123    1
    37    32    31   ar
    38    32    34   ar
    39    36    34   ar
    40    18    16   ar
    41    18    20   ar
    42    16    17   ar
    43   134   133    1
    44   136   133    1
    45   136   137    1
    46   132   133    1
    47     2     1    1
    48     2     5    1
    49   123   119   am
    50     8    10   ar
    51     8     6   ar
    52   120   119    2
    53    20    21   ar
    54   119   118    1
    55    10     9   ar
    56    17    19   ar
    57     5     6    1
    58     6     7   ar
    59    57    59   ar
    60    57    55   ar
    61    59    58   ar
    62   122   121    1
    63   122   187    1
    64   121   118    1
    65    55    54   ar
    66    55    53   ar
    67    54    52   ar
    68    58    56   ar
    69    21    19   ar
    70    21    22    1
    71   118   117    1
    72     9     7   ar
    73    53    56   ar
    74    53    51   ar
    75    52    51   ar
    76    51    50    1
    77   117   114   am
    78    69    68    1
    79    50    47    1
    80   187   186    1
    81   141   140    2
    82   142   144    1
    83   142   143    1
    84   142   139    1
    85   114   113    1
    86   114   115    2
    87    68    67    2
    88    68    70    1
    89   113   116    1
    90   113   112    1
    91    67    66    1
    92   186   183    1
    93    47    48    1
    94    47    46    1
    95   140   139    1
    96   140   145   am
    97   148   147    2
    98    95    93    1
    99   107   106    2
   100   138   139    1
   101    49    48    2
   102    48    60   am
   103    65    66    1
   104    65    64    2
   105    94    93    1
   106   112   106   am
   107   147   146    1
   108   147   151   am
   109   146   145    1
   110   146   149    1
   111   106   105    1
   112    60    61    1
   113    93    92    1
   114   183   182    1
   115   183   184    1
   116    61    64    1
   117    61    62    1
   118   182   180   am
   119   181   180    2
   120   180   179    1
   121   179   178    1
   122   185   184    2
   123   152   151    1
   124   152   155    1
   125   152   153    1
   126    92    89    1
   127   150   149    1
   128   178   171   am
   129   168   167    2
   130   105   104    1
   131   105   108    1
   132   155   156    1
   133   197   196    1
   134    62    63    2
   135    62    71   am
   136   165   153   am
   137   165   166    1
   138    89    88    1
   139    89    90    1
   140   108   109    1
   141   153   154    2
   142   235   233   ar
   143   235   236   ar
   144   109   110   ar
   145   109   111   ar
   146   167   166    1
   147   167   169   am
   148    91    90    2
   149   233   231   ar
   150    71    72    1
   151    88    82   am
   152   171   170    1
   153   171   172    2
   154   237   236    1
   155   196   195    2
   156   196   198    1
   157   195   194    1
   158   218   217    2
   159   156   157   ar
   160   156   158   ar
   161   236   234   ar
   162   170   169    1
   163   170   173    1
   164   157   159   ar
   165    82    83    2
   166    82    81    1
   167   193   194    1
   168   193   192    1
   169    74    73    2
   170   231   230    1
   171   231   232   ar
   172    72    73    1
   173    72    75    1
   174    73    80   am
   175   227   230    1
   176   227   228    1
   177   227   226    1
   178   217   226   am
   179   217   216    1
   180    80    81    1
   181   188   189    1
   182   158   161   ar
   183   158   160   ar
   184   234   232   ar
   185   228   229    2
   186    81    84    1
   187   173   174    2
   188   161   163   ar
   189   159   160   ar
   190   212   213    1
   191   212   211    1
   192   215   216    1
   193   215   213   am
   194   174   175    1
   195   189   192    1
   196   189   190    1
   197    75    76    1
   198   216   219    1
   199   160   162   ar
   200   213   214    2
   201   219   220    1
   202    86    85    2
   203   211   201   am
   204   103   101    1
   205   163   164   ar
   206    84    85    1
   207   202   201    2
   208   175   177   ar
   209   175   176   ar
   210    76    77    1
   211    85    87   am
   212   190   191    2
   213   201   200    1
   214   162   164   ar
   215   220   221   ar
   216   220   222   ar
   217   101   100    1
   218   221   223   ar
   219   102   100    1
   220    78    77   ar
   221   200   199    1
   222   200   203    1
   223    77    79   ar
   224   100    97    1
   225   222   224   ar
   226   223   225   ar
   227   203   204    1
   228   224   225   ar
   229    97    96    1
   230    97    98    1
   231   204   205   ar
   232   204   206   ar
   233    98    99    2
   234   205   207   ar
   235   206   208   ar
   236   207   209   ar
   237   208   209   ar
   238   209   210    1
