@<TRIPOS>MOLECULE
tmp/1yplB01.pdb
 206 208 0 0 0
SMALL
GASTEIGER

@<TRIPOS>ATOM
      1  N         22.5580   -6.0390   18.2500 N.3    43  HIS43      -0.1241
      2  CA        22.4150   -7.4280   17.8230 C.3    43  HIS43       0.1621
      3  C         21.6700   -7.4990   16.4910 C.2    43  HIS43       0.2264
      4  O         21.6650   -8.5600   15.8650 O.2    43  HIS43      -0.2867
      5  CB        21.7210   -8.2820   18.8840 C.3    43  HIS43       0.0745
      6  CG        20.2270   -8.2460   18.9310 C.ar   43  HIS43       0.0817
      7  ND1       19.5160   -7.4210   19.7870 N.ar   43  HIS43      -0.2268
      8  CD2       19.2900   -8.9400   18.2410 C.ar   43  HIS43       0.1154
      9  CE1       18.2200   -7.6060   19.6050 C.ar   43  HIS43       0.1986
     10  NE2       18.0530   -8.5250   18.6630 N.ar   43  HIS43      -0.2212
     11  N         25.9250  -10.1150   15.3240 N.3    47  TYR47      -0.1241
     12  CA        25.7180  -11.2610   16.1970 C.3    47  TYR47       0.1605
     13  C         26.3700  -12.5140   15.6030 C.2    47  TYR47       0.2264
     14  O         25.7790  -13.4080   15.0110 O.2    47  TYR47      -0.2867
     15  CB        24.2420  -11.5030   16.4820 C.3    47  TYR47       0.0534
     16  CG        24.0990  -12.4350   17.6720 C.ar   47  TYR47      -0.0201
     17  CD1       24.5980  -12.0570   18.9170 C.ar   47  TYR47      -0.0009
     18  CD2       23.4820  -13.6680   17.5360 C.ar   47  TYR47      -0.0009
     19  CE1       24.4690  -12.9140   19.9990 C.ar   47  TYR47       0.0417
     20  CE2       23.3510  -14.5290   18.6110 C.ar   47  TYR47       0.0417
     21  CZ        23.8510  -14.1300   19.8330 C.ar   47  TYR47       0.1957
     22  OH        23.7130  -14.9910   20.8890 O.3    47  TYR47      -0.2866
     23  N         25.2760  -16.1650   15.1250 N.3    50  TRP50      -0.1241
     24  CA        24.3260  -16.4310   14.0460 C.3    50  TRP50       0.1605
     25  C         24.9160  -15.9790   12.7120 C.2    50  TRP50       0.2264
     26  O         24.2120  -15.8270   11.7140 O.2    50  TRP50      -0.2867
     27  CB        22.9920  -15.7350   14.2890 C.3    50  TRP50       0.0550
     28  CG        22.2140  -16.2420   15.4600 C.ar   50  TRP50       0.0003
     29  CD1       22.4540  -17.3940   16.1510 C.ar   50  TRP50       0.0946
     30  CD2       21.0750  -15.6330   16.0840 C.ar   50  TRP50       0.0152
     31  NE1       21.5390  -17.5420   17.1640 N.ar   50  TRP50      -0.2442
     32  CE2       20.6830  -16.4710   17.1440 C.ar   50  TRP50       0.0810
     33  CE3       20.3460  -14.4600   15.8560 C.ar   50  TRP50       0.0012
     34  CZ2       19.6000  -16.1830   17.9720 C.ar   50  TRP50       0.0191
     35  CZ3       19.2730  -14.1800   16.6840 C.ar   50  TRP50       0.0001
     36  CH2       18.9010  -15.0290   17.7340 C.ar   50  TRP50       0.0015
     37  N         28.2920   -9.3090   22.7270 N.3    92  TRP92      -0.1241
     38  CA        27.5380  -10.3250   22.0100 C.3    92  TRP92       0.1605
     39  C         27.9330  -11.7210   22.4790 C.2    92  TRP92       0.2264
     40  O         27.2550  -12.7040   22.1840 O.2    92  TRP92      -0.2867
     41  CB        27.7560  -10.2060   20.5090 C.3    92  TRP92       0.0550
     42  CG        29.2040  -10.1830   20.1240 C.ar   92  TRP92       0.0003
     43  CD1       29.9490   -9.0530   19.9310 C.ar   92  TRP92       0.0946
     44  CD2       30.0760  -11.2940   19.8870 C.ar   92  TRP92       0.0152
     45  NE1       31.2340   -9.3950   19.5880 N.ar   92  TRP92      -0.2442
     46  CE2       31.3350  -10.7630   19.5540 C.ar   92  TRP92       0.0810
     47  CE3       29.9190  -12.6850   19.9230 C.ar   92  TRP92       0.0012
     48  CZ2       32.4430  -11.5600   19.2560 C.ar   92  TRP92       0.0191
     49  CZ3       31.0090  -13.4770   19.6280 C.ar   92  TRP92       0.0001
     50  CH2       32.2550  -12.9180   19.2990 C.ar   92  TRP92       0.0015
     51  N         28.0940  -12.8850   25.6290 N.3    94  GLU94      -0.1231
     52  CA        27.3920  -13.4380   26.7800 C.3    94  GLU94       0.1699
     53  C         25.9360  -13.0230   26.8820 C.2    94  GLU94       0.2592
     54  O         25.0410  -13.8660   26.7740 O.2    94  GLU94      -0.2718
     55  CB        28.0930  -13.0400   28.0940 C.3    94  GLU94       0.0402
     56  CG        27.5920  -13.8700   29.2720 C.3    94  GLU94       0.1161
     57  CD        27.4170  -13.0610   30.5360 C.2    94  GLU94       0.3649
     58  OE1       27.7200  -11.8480   30.5120 O.co2  94  GLU94      -0.2457
     59  OE2       26.9790  -13.6140   31.5610 O.co2  94  GLU94      -0.2457
     60  N         25.6550  -11.7460   27.1240 N.am   95  ASN95      -0.1960
     61  CA        24.2700  -11.4210   27.4830 C.3    95  ASN95       0.1819
     62  C         23.6830  -10.1990   26.7930 C.2    95  ASN95       0.2621
     63  O         22.6640   -9.6700   27.2540 O.2    95  ASN95      -0.2715
     64  CB        24.2330  -11.1870   29.0030 C.3    95  ASN95       0.1195
     65  CG        25.2430  -10.1330   29.4360 C.2    95  ASN95       0.2630
     66  OD1       25.9800   -9.5570   28.6390 O.2    95  ASN95      -0.2716
     67  ND2       25.2800   -9.8850   30.7390 N.am   95  ASN95      -0.0877
     68  N         24.3130   -9.7530   25.7230 N.am   96  LEU96      -0.1977
     69  CA        23.9250   -8.5730   24.9630 C.3    96  LEU96       0.1596
     70  C         24.0350   -7.3040   25.7780 C.2    96  LEU96       0.2287
     71  O         23.3180   -6.3180   25.6050 O.2    96  LEU96      -0.2864
     72  CB        22.5000   -8.7500   24.4550 C.3    96  LEU96       0.0297
     73  CG        22.2130   -9.7870   23.3770 C.3    96  LEU96       0.0022
     74  CD1       20.9530   -9.3920   22.6030 C.3    96  LEU96       0.0001
     75  CD2       23.3810   -9.9930   22.4380 C.3    96  LEU96       0.0001
     76  N         20.0220  -15.8350   32.8400 N.3   172  ILE172     -0.1245
     77  CA        20.9400  -14.8970   32.2230 C.3   172  ILE172      0.1561
     78  C         21.3790  -13.8400   33.2350 C.2   172  ILE172      0.2260
     79  O         20.6210  -13.4800   34.1300 O.2   172  ILE172     -0.2867
     80  CB        20.3320  -14.2100   30.9880 C.3   172  ILE172      0.0252
     81  CG1       19.7200  -15.2090   29.9930 C.3   172  ILE172      0.0019
     82  CG2       21.3610  -13.3190   30.2920 C.3   172  ILE172      0.0019
     83  CD1       20.7600  -15.9500   29.1810 C.3   172  ILE172      0.0001
     84  N          4.0140   -8.7540   24.9870 N.3   192  ASP192     -0.1225
     85  CA         5.4540   -8.8870   24.8590 C.3   192  ASP192      0.1805
     86  C          5.8370   -8.4750   23.4390 C.2   192  ASP192      0.2598
     87  O          5.0200   -8.5440   22.5270 O.2   192  ASP192     -0.2718
     88  CB         5.9570  -10.3140   25.0940 C.3   192  ASP192      0.1424
     89  CG         7.3990  -10.4080   25.5390 C.2   192  ASP192      0.3668
     90  OD1        8.0650   -9.3570   25.6530 O.co2 192  ASP192     -0.2456
     91  OD2        7.9100  -11.5290   25.7880 O.co2 192  ASP192     -0.2456
     92  N          7.0870   -8.0780   23.3400 N.am  193  ALA193     -0.1966
     93  CA         7.8000   -8.0060   22.0980 C.3   193  ALA193      0.1728
     94  C          8.1410   -9.4290   21.6730 C.2   193  ALA193      0.2616
     95  O          7.9560  -10.3020   22.5210 O.2   193  ALA193     -0.2715
     96  CB         9.0460   -7.1660   22.2730 C.3   193  ALA193      0.0334
     97  N          8.6240   -9.6500   20.4640 N.am  194  CYS194     -0.1954
     98  CA         8.9710  -10.9880   19.9810 C.3   194  CYS194      0.1843
     99  C          9.9530  -10.8950   18.8180 C.2   194  CYS194      0.2625
    100  O         10.3430   -9.7660   18.4860 O.2   194  CYS194     -0.2714
    101  CB         7.7180  -11.7400   19.5530 C.3   194  CYS194      0.0997
    102  SG         7.8650  -13.5440   19.4290 S.3   194  CYS194     -0.0797
    103  N         10.3410  -12.0110   18.2070 N.am  195  GLU195     -0.1977
    104  CA        11.1860  -11.9620   17.0160 C.3   195  GLU195      0.1602
    105  C         10.7160  -10.9500   15.9800 C.2   195  GLU195      0.2287
    106  O          9.5440  -10.9550   15.5800 O.2   195  GLU195     -0.2864
    107  CB        11.2490  -13.3280   16.3070 C.3   195  GLU195      0.0415
    108  CG        12.3260  -13.3560   15.2250 C.3   195  GLU195      0.1163
    109  CD        12.1440  -14.4750   14.2200 C.2   195  GLU195      0.3649
    110  OE1       12.8090  -14.4360   13.1610 O.co2 195  GLU195     -0.2457
    111  OE2       11.3370  -15.3930   14.4830 O.co2 195  GLU195     -0.2457
    112  N         12.8190   -6.6800   17.6420 N.3   198  SER198     -0.1217
    113  CA        14.2060   -6.3680   17.9480 C.3   198  SER198      0.1889
    114  C         14.6240   -5.0050   17.4140 C.2   198  SER198      0.2288
    115  O         14.3670   -4.7300   16.2400 O.2   198  SER198     -0.2866
    116  CB        15.1320   -7.4110   17.2930 C.3   198  SER198      0.2089
    117  OG        15.3380   -8.5500   18.1070 O.3   198  SER198     -0.2183
    118  N         14.1980   -2.7990   22.3100 N.3   218  VAL218     -0.1231
    119  CA        13.9250   -4.2290   22.3470 C.3   218  VAL218      0.1692
    120  C         15.1990   -5.0300   22.1020 C.2   218  VAL218      0.2593
    121  O         15.7750   -4.9300   21.0110 O.2   218  VAL218     -0.2718
    122  CB        12.8770   -4.6540   21.2990 C.3   218  VAL218      0.0266
    123  CG1       12.6790   -6.1650   21.4140 C.3   218  VAL218      0.0020
    124  CG2       11.5730   -3.9090   21.4920 C.3   218  VAL218      0.0020
    125  N         15.5900   -5.7960   23.1180 N.am  219  SER219     -0.1938
    126  CA        16.8840   -6.4560   23.1370 C.3   219  SER219      0.2055
    127  C         16.8350   -7.9700   23.2040 C.2   219  SER219      0.2643
    128  O         17.4080   -8.6250   22.3250 O.2   219  SER219     -0.2714
    129  CB        17.6900   -5.8980   24.3230 C.3   219  SER219      0.2130
    130  OG        18.9590   -6.5120   24.3910 O.3   219  SER219     -0.2179
    131  N         16.2050   -8.5950   24.1900 N.am  220  TRP220     -0.1959
    132  CA        16.1800  -10.0580   24.2300 C.3   220  TRP220      0.1771
    133  C         15.0660  -10.5490   25.1420 C.2   220  TRP220      0.2620
    134  O         14.4680   -9.7830   25.8880 O.2   220  TRP220     -0.2715
    135  CB        17.5220  -10.6230   24.6840 C.3   220  TRP220      0.0590
    136  CG        17.9930  -10.2670   26.0560 C.ar  220  TRP220      0.0006
    137  CD1       18.7270   -9.1660   26.4070 C.ar  220  TRP220      0.0946
    138  CD2       17.7810  -10.9980   27.2800 C.ar  220  TRP220      0.0152
    139  NE1       18.9750   -9.1690   27.7540 N.ar  220  TRP220     -0.2442
    140  CE2       18.4100  -10.2800   28.3110 C.ar  220  TRP220      0.0810
    141  CE3       17.1210  -12.1910   27.6060 C.ar  220  TRP220      0.0012
    142  CZ2       18.4030  -10.7100   29.6440 C.ar  220  TRP220      0.0191
    143  CZ3       17.1050  -12.6300   28.9270 C.ar  220  TRP220      0.0001
    144  CH2       17.7460  -11.8740   29.9130 C.ar  220  TRP220      0.0015
    145  N         14.8170  -11.8600   25.0460 N.am  221  GLY221     -0.1940
    146  CA        13.8070  -12.5030   25.8810 C.3   221  GLY221      0.2014
    147  C         13.8870  -14.0110   25.6950 C.2   221  GLY221      0.2639
    148  O         14.5830  -14.5260   24.8200 O.2   221  GLY221     -0.2714
    149  N         13.1780  -14.7220   26.5390 N.am  222  GLU222     -0.1963
    150  CA        13.0780  -16.1770   26.4580 C.3   222  GLU222      0.1733
    151  C         11.6710  -16.5520   26.0110 C.2   222  GLU222      0.2617
    152  O         10.6380  -16.4820   26.6640 O.2   222  GLU222     -0.2715
    153  CB        13.4950  -16.7600   27.7970 C.3   222  GLU222      0.0429
    154  CG        14.7580  -16.1090   28.3450 C.3   222  GLU222      0.1163
    155  CD        15.0470  -16.4430   29.7930 C.2   222  GLU222      0.3649
    156  OE1       14.7720  -15.6190   30.6840 O.co2 222  GLU222     -0.2457
    157  OE2       15.5570  -17.5540   30.0490 O.co2 222  GLU222     -0.2457
    158  N         11.5970  -16.9630   24.7480 N.am  223  GLY223     -0.1940
    159  CA        10.2600  -17.0800   24.1780 C.3   223  GLY223      0.2014
    160  C          9.6210  -15.7010   24.1130 C.2   223  GLY223      0.2639
    161  O         10.3010  -14.6820   24.2090 O.2   223  GLY223     -0.2714
    162  N          8.3130  -15.6890   23.9260 N.am  224  CYS224     -0.1967
    163  CA         7.5860  -14.4340   23.8220 C.3   224  CYS224      0.1712
    164  C          6.2410  -14.6310   24.5350 C.2   224  CYS224      0.2296
    165  O          5.5560  -15.6130   24.2340 O.2   224  CYS224     -0.2864
    166  CB         7.3700  -13.9610   22.3990 C.3   224  CYS224      0.0983
    167  SG         8.6940  -14.0910   21.1980 S.3   224  CYS224     -0.0798
    168  N          9.7670  -12.1970   31.0140 N.3   230  TYR230     -0.1227
    169  CA         9.7220  -10.7580   30.8060 C.3   230  TYR230      0.1736
    170  C         10.6210  -10.3580   29.6420 C.2   230  TYR230      0.2596
    171  O         11.6730  -10.9390   29.3560 O.2   230  TYR230     -0.2718
    172  CB        10.1120   -9.9640   32.0760 C.3   230  TYR230      0.0548
    173  CG         9.2200  -10.3490   33.2410 C.ar  230  TYR230     -0.0200
    174  CD1        8.0040   -9.7210   33.4310 C.ar  230  TYR230     -0.0009
    175  CD2        9.5850  -11.3620   34.1240 C.ar  230  TYR230     -0.0009
    176  CE1        7.1840  -10.0660   34.4760 C.ar  230  TYR230      0.0417
    177  CE2        8.7610  -11.7200   35.1750 C.ar  230  TYR230      0.0417
    178  CZ         7.5640  -11.0640   35.3400 C.ar  230  TYR230      0.1957
    179  OH         6.7020  -11.3790   36.3650 O.3   230  TYR230     -0.2866
    180  N         10.2000   -9.3220   28.9020 N.am  231  GLY231     -0.1942
    181  CA        11.0810   -8.8680   27.8180 C.3   231  GLY231      0.2014
    182  C         12.1950   -8.0070   28.4060 C.2   231  GLY231      0.2639
    183  O         11.9600   -7.3070   29.3980 O.2   231  GLY231     -0.2714
    184  N         13.3910   -8.0460   27.8170 N.am  232  PHE232     -0.1959
    185  CA        14.4850   -7.2170   28.3230 C.3   232  PHE232      0.1771
    186  C         14.8290   -6.1600   27.2730 C.2   232  PHE232      0.2619
    187  O         14.7590   -6.4670   26.0950 O.2   232  PHE232     -0.2715
    188  CB        15.7400   -8.0160   28.6830 C.3   232  PHE232      0.0574
    189  CG        15.5680   -8.7720   30.0000 C.ar  232  PHE232     -0.0200
    190  CD1       14.8040   -9.9100   30.0490 C.ar  232  PHE232     -0.0042
    191  CD2       16.1700   -8.3020   31.1620 C.ar  232  PHE232     -0.0042
    192  CE1       14.6260  -10.5920   31.2400 C.ar  232  PHE232     -0.0003
    193  CE2       16.0080   -8.9720   32.3550 C.ar  232  PHE232     -0.0003
    194  CZ        15.2290  -10.1120   32.3890 C.ar  232  PHE232     -0.0000
    195  N         15.1580   -4.9840   27.7570 N.am  233  TYR233     -0.1974
    196  CA        15.4010   -3.7710   27.0110 C.3   233  TYR233      0.1639
    197  C         16.7250   -3.1290   27.3770 C.2   233  TYR233      0.2290
    198  O         17.0930   -3.0480   28.5440 O.2   233  TYR233     -0.2864
    199  CB        14.2420   -2.7880   27.2740 C.3   233  TYR233      0.0560
    200  CG        12.9040   -3.4050   26.9110 C.ar  233  TYR233     -0.0198
    201  CD1       12.2010   -4.2390   27.7810 C.ar  233  TYR233     -0.0009
    202  CD2       12.3240   -3.1490   25.6730 C.ar  233  TYR233     -0.0009
    203  CE1       10.9770   -4.7830   27.4020 C.ar  233  TYR233      0.0417
    204  CE2       11.1150   -3.6910   25.3080 C.ar  233  TYR233      0.0417
    205  CZ        10.4320   -4.5130   26.1780 C.ar  233  TYR233      0.1957
    206  OH         9.2220   -5.0320   25.7550 O.3   233  TYR233     -0.2866
@<TRIPOS>BOND
     1    26    25    2
     2    25    24    1
     3   110   109   ar
     4    24    27    1
     5    24    23    1
     6   109   111   ar
     7   109   108    1
     8    27    28    1
     9    14    13    2
    10   108   107    1
    11    11    12    1
    12    28    30   ar
    13    28    29   ar
    14   106   105    2
    15    13    12    1
    16    33    30   ar
    17    33    35   ar
    18     4     3    2
    19   105   104    1
    20    30    32   ar
    21    29    31   ar
    22    12    15    1
    23   115   114    2
    24   107   104    1
    25    15    16    1
    26     3     2    1
    27    35    36   ar
    28   104   103    1
    29    32    31   ar
    30    32    34   ar
    31   116   113    1
    32   116   117    1
    33   114   113    1
    34    18    16   ar
    35    18    20   ar
    36   112   113    1
    37    16    17   ar
    38    36    34   ar
    39     2     1    1
    40     2     5    1
    41   103    99   am
    42     8    10   ar
    43     8     6   ar
    44   100    99    2
    45    20    21   ar
    46    10     9   ar
    47    99    98    1
    48     5     6    1
    49    17    19   ar
    50     6     7   ar
    51    48    50   ar
    52    48    46   ar
    53    50    49   ar
    54   102   101    1
    55   102   167    1
    56   101    98    1
    57    46    45   ar
    58    46    44   ar
    59    45    43   ar
    60     9     7   ar
    61    49    47   ar
    62    21    19   ar
    63    21    22    1
    64    44    47   ar
    65    44    42   ar
    66    43    42   ar
    67    98    97    1
    68    42    41    1
    69    97    94   am
    70    41    38    1
    71   121   120    2
    72   167   166    1
    73   122   123    1
    74   122   124    1
    75   122   119    1
    76    94    93    1
    77    94    95    2
    78    38    39    1
    79    38    37    1
    80    93    96    1
    81    93    92    1
    82   120   119    1
    83   120   125   am
    84    40    39    2
    85   118   119    1
    86   128   127    2
    87   166   163    1
    88    75    73    1
    89    87    86    2
    90    74    73    1
    91   125   126    1
    92   126   127    1
    93   126   129    1
    94   127   131   am
    95    92    86   am
    96    73    72    1
    97    86    85    1
    98   163   162    1
    99   163   164    1
   100   162   160   am
   101   160   159    1
   102   160   161    2
   103   159   158    1
   104   131   132    1
   105   132   135    1
   106   132   133    1
   107   165   164    2
   108   129   130    1
   109    72    69    1
   110   135   136    1
   111   158   151   am
   112   148   147    2
   113    85    84    1
   114    85    88    1
   115    69    68    1
   116    69    70    1
   117   145   133   am
   118   145   146    1
   119    88    89    1
   120   133   134    2
   121   204   202   ar
   122   204   205   ar
   123    89    90   ar
   124    89    91   ar
   125    71    70    2
   126    51    52    1
   127   202   200   ar
   128   147   146    1
   129   147   149   am
   130    68    62   am
   131   206   205    1
   132   151   150    1
   133   151   152    2
   134   136   137   ar
   135   136   138   ar
   136   187   186    2
   137   205   203   ar
   138   137   139   ar
   139   150   149    1
   140   150   153    1
   141    54    53    2
   142    52    53    1
   143    52    55    1
   144    62    63    2
   145    62    61    1
   146    53    60   am
   147   200   199    1
   148   200   201   ar
   149   196   199    1
   150   196   197    1
   151   196   195    1
   152    60    61    1
   153   186   195   am
   154   186   185    1
   155   138   141   ar
   156   138   140   ar
   157   197   198    2
   158   203   201   ar
   159    61    64    1
   160   141   143   ar
   161   139   140   ar
   162   153   154    1
   163   184   185    1
   164   184   182   am
   165   181   182    1
   166   181   180    1
   167    55    56    1
   168   140   142   ar
   169   185   188    1
   170   154   155    1
   171   182   183    2
   172    66    65    2
   173   188   189    1
   174   180   170   am
   175   143   144   ar
   176    64    65    1
   177    83    81    1
   178    56    57    1
   179   171   170    2
   180    65    67   am
   181   170   169    1
   182   142   144   ar
   183   155   157   ar
   184   155   156   ar
   185    81    80    1
   186   189   190   ar
   187   189   191   ar
   188   190   192   ar
   189    82    80    1
   190    58    57   ar
   191    57    59   ar
   192   169   168    1
   193   169   172    1
   194    80    77    1
   195   191   193   ar
   196   192   194   ar
   197   172   173    1
   198    77    76    1
   199    77    78    1
   200   193   194   ar
   201    78    79    2
   202   173   174   ar
   203   173   175   ar
   204   174   176   ar
   205   175   177   ar
   206   176   178   ar
   207   177   178   ar
   208   178   179    1
