@<TRIPOS>MOLECULE
tmp/1ypmB01.pdb
 212 211 0 0 0
SMALL
GASTEIGER

@<TRIPOS>ATOM
      1  N         22.7420   -5.9590   18.0670 N.3    43  HIS43      -0.1241
      2  CA        22.5400   -7.3300   17.6240 C.3    43  HIS43       0.1621
      3  C         21.8110   -7.3620   16.2800 C.2    43  HIS43       0.2264
      4  O         21.8450   -8.3940   15.5960 O.2    43  HIS43      -0.2867
      5  CB        21.7980   -8.1830   18.6610 C.3    43  HIS43       0.0745
      6  CG        20.3080   -8.1180   18.7060 C.ar   43  HIS43       0.0817
      7  ND1       19.6550   -7.3690   19.6710 N.ar   43  HIS43      -0.2268
      8  CD2       19.3150   -8.6780   17.9720 C.ar   43  HIS43       0.1154
      9  CE1       18.3440   -7.4660   19.5120 C.ar   43  HIS43       0.1986
     10  NE2       18.1120   -8.2560   18.4820 N.ar   43  HIS43      -0.2212
     11  N         26.0000  -10.1330   15.1120 N.3    47  TYR47      -0.1241
     12  CA        25.8090  -11.2820   15.9750 C.3    47  TYR47       0.1605
     13  C         26.5040  -12.5170   15.3880 C.2    47  TYR47       0.2264
     14  O         25.9080  -13.3500   14.7060 O.2    47  TYR47      -0.2867
     15  CB        24.3490  -11.6350   16.2290 C.3    47  TYR47       0.0534
     16  CG        24.1860  -12.5180   17.4560 C.ar   47  TYR47      -0.0201
     17  CD1       24.6180  -12.0850   18.7070 C.ar   47  TYR47      -0.0009
     18  CD2       23.6020  -13.7720   17.3860 C.ar   47  TYR47      -0.0009
     19  CE1       24.4680  -12.8850   19.8270 C.ar   47  TYR47       0.0417
     20  CE2       23.4520  -14.5790   18.5010 C.ar   47  TYR47       0.0417
     21  CZ        23.8960  -14.1290   19.7280 C.ar   47  TYR47       0.1957
     22  OH        23.7430  -14.9230   20.8540 O.3    47  TYR47      -0.2866
     23  N         25.3320  -16.3310   15.1310 N.3    50  TRP50      -0.1241
     24  CA        24.3680  -16.5550   14.0700 C.3    50  TRP50       0.1605
     25  C         24.8880  -16.0460   12.7280 C.2    50  TRP50       0.2264
     26  O         24.1390  -15.8800   11.7670 O.2    50  TRP50      -0.2867
     27  CB        23.0490  -15.8650   14.4000 C.3    50  TRP50       0.0550
     28  CG        22.2820  -16.4170   15.5580 C.ar   50  TRP50       0.0003
     29  CD1       22.4770  -17.5410   16.3050 C.ar   50  TRP50       0.0946
     30  CD2       21.1150  -15.7820   16.1040 C.ar   50  TRP50       0.0152
     31  NE1       21.5150  -17.6470   17.2740 N.ar   50  TRP50      -0.2442
     32  CE2       20.6660  -16.5770   17.1700 C.ar   50  TRP50       0.0810
     33  CE3       20.4280  -14.6100   15.7670 C.ar   50  TRP50       0.0012
     34  CZ2       19.5400  -16.2290   17.9140 C.ar   50  TRP50       0.0191
     35  CZ3       19.3120  -14.2720   16.5110 C.ar   50  TRP50       0.0001
     36  CH2       18.8810  -15.0800   17.5710 C.ar   50  TRP50       0.0015
     37  N         28.2470  -12.7830   25.6060 N.3    94  GLU94      -0.1231
     38  CA        27.5720  -13.3480   26.7560 C.3    94  GLU94       0.1699
     39  C         26.1300  -12.9220   26.9480 C.2    94  GLU94       0.2592
     40  O         25.2250  -13.7610   26.9690 O.2    94  GLU94      -0.2718
     41  CB        28.3310  -12.9540   28.0490 C.3    94  GLU94       0.0402
     42  CG        27.4160  -13.1120   29.2570 C.3    94  GLU94       0.1161
     43  CD        27.9850  -12.5890   30.5570 C.2    94  GLU94       0.3649
     44  OE1       28.9540  -11.7990   30.5430 O.co2  94  GLU94      -0.2457
     45  OE2       27.4430  -12.9850   31.6120 O.co2  94  GLU94      -0.2457
     46  N         25.8820  -11.6290   27.1480 N.am   95  ASN95      -0.1960
     47  CA        24.5240  -11.2450   27.5550 C.3    95  ASN95       0.1819
     48  C         23.9580  -10.0530   26.8150 C.2    95  ASN95       0.2621
     49  O         22.9620   -9.4720   27.2610 O.2    95  ASN95      -0.2715
     50  CB        24.5420  -10.9320   29.0630 C.3    95  ASN95       0.1195
     51  CG        25.5540   -9.8550   29.3950 C.2    95  ASN95       0.2630
     52  OD1       26.3270   -9.4190   28.5370 O.2    95  ASN95      -0.2716
     53  ND2       25.5390   -9.4180   30.6470 N.am   95  ASN95      -0.0877
     54  N         24.5620   -9.6540   25.7010 N.am   96  LEU96      -0.1977
     55  CA        24.0440   -8.5100   24.9460 C.3    96  LEU96       0.1596
     56  C         24.1480   -7.2060   25.7360 C.2    96  LEU96       0.2287
     57  O         23.4250   -6.2390   25.4880 O.2    96  LEU96      -0.2864
     58  CB        22.6050   -8.7330   24.4810 C.3    96  LEU96       0.0297
     59  CG        22.3260   -9.7500   23.3830 C.3    96  LEU96       0.0022
     60  CD1       21.0360   -9.4360   22.6290 C.3    96  LEU96       0.0001
     61  CD2       23.4650   -9.8560   22.3830 C.3    96  LEU96       0.0001
     62  N          5.1000  -16.5700   19.5410 N.3   146  GLU146     -0.1245
     63  CA         6.4670  -17.0640   19.7010 C.3   146  GLU146      0.1567
     64  C          6.8770  -17.9800   18.5510 C.2   146  GLU146      0.2260
     65  O          8.0570  -18.0650   18.1960 O.2   146  GLU146     -0.2867
     66  CB         6.6500  -17.7930   21.0380 C.3   146  GLU146      0.0388
     67  CG         8.0790  -18.2910   21.2140 C.3   146  GLU146      0.1160
     68  CD         8.3790  -18.8810   22.5680 C.2   146  GLU146      0.3649
     69  OE1        7.7450  -18.5150   23.5770 O.co2 146  GLU146     -0.2457
     70  OE2        9.2920  -19.7380   22.6340 O.co2 146  GLU146     -0.2457
     71  N         20.4940  -15.6670   32.5950 N.3   172  ILE172     -0.1245
     72  CA        21.3400  -14.6630   31.9600 C.3   172  ILE172      0.1561
     73  C         21.7380  -13.5720   32.9450 C.2   172  ILE172      0.2260
     74  O         20.9630  -13.1010   33.7830 O.2   172  ILE172     -0.2867
     75  CB        20.6500  -14.0360   30.7330 C.3   172  ILE172      0.0252
     76  CG1       20.1650  -15.0750   29.7210 C.3   172  ILE172      0.0019
     77  CG2       21.5630  -13.0020   30.0910 C.3   172  ILE172      0.0019
     78  CD1       21.0160  -16.3260   29.7170 C.3   172  ILE172      0.0001
     79  N          4.3210   -8.7750   24.8330 N.3   192  ASP192     -0.1225
     80  CA         5.7650   -8.8470   24.7330 C.3   192  ASP192      0.1805
     81  C          6.2160   -8.4920   23.3220 C.2   192  ASP192      0.2598
     82  O          5.4380   -8.6270   22.3840 O.2   192  ASP192     -0.2718
     83  CB         6.2340  -10.2590   25.0750 C.3   192  ASP192      0.1424
     84  CG         7.6940  -10.3810   25.4260 C.2   192  ASP192      0.3668
     85  OD1        8.3500   -9.3270   25.4410 O.co2 192  ASP192     -0.2456
     86  OD2        8.1720  -11.5160   25.6690 O.co2 192  ASP192     -0.2456
     87  N          7.4760   -8.0600   23.2270 N.am  193  ALA193     -0.1966
     88  CA         8.1180   -7.9850   21.9370 C.3   193  ALA193      0.1728
     89  C          8.4860   -9.4200   21.5320 C.2   193  ALA193      0.2616
     90  O          8.4300  -10.3180   22.3620 O.2   193  ALA193     -0.2715
     91  CB         9.3530   -7.1180   21.9140 C.3   193  ALA193      0.0334
     92  N          8.8490   -9.5950   20.2770 N.am  194  CYS194     -0.1954
     93  CA         9.1990  -10.9370   19.8060 C.3   194  CYS194      0.1843
     94  C         10.1650  -10.8260   18.6350 C.2   194  CYS194      0.2625
     95  O         10.6160   -9.7150   18.3300 O.2   194  CYS194     -0.2714
     96  CB         7.9470  -11.6950   19.4000 C.3   194  CYS194      0.0997
     97  SG         8.1240  -13.4860   19.3420 S.3   194  CYS194     -0.0797
     98  N         10.4750  -11.9630   18.0200 N.am  195  GLU195     -0.1977
     99  CA        11.3540  -11.9520   16.8650 C.3   195  GLU195      0.1602
    100  C         10.8430  -10.9490   15.8280 C.2   195  GLU195      0.2287
    101  O          9.6570  -10.9320   15.5230 O.2   195  GLU195     -0.2864
    102  CB        11.4800  -13.3290   16.2060 C.3   195  GLU195      0.0415
    103  CG        12.7730  -13.4280   15.4040 C.3   195  GLU195      0.1163
    104  CD        12.7730  -14.4070   14.2540 C.2   195  GLU195      0.3649
    105  OE1       13.4590  -14.1240   13.2410 O.co2 195  GLU195     -0.2457
    106  OE2       12.1080  -15.4640   14.3370 O.co2 195  GLU195     -0.2457
    107  N         13.1230   -6.6500   17.4760 N.3   198  SER198     -0.1217
    108  CA        14.5030   -6.3280   17.7480 C.3   198  SER198      0.1889
    109  C         14.8930   -4.9410   17.2620 C.2   198  SER198      0.2288
    110  O         14.7170   -4.6730   16.0690 O.2   198  SER198     -0.2866
    111  CB        15.4350   -7.3280   17.0210 C.3   198  SER198      0.2089
    112  OG        15.7120   -8.4980   17.7510 O.3   198  SER198     -0.2183
    113  N         14.5350   -2.6460   22.0620 N.3   218  VAL218     -0.1231
    114  CA        14.2060   -4.0650   22.1690 C.3   218  VAL218      0.1692
    115  C         15.4930   -4.8810   21.9980 C.2   218  VAL218      0.2593
    116  O         16.0930   -4.8040   20.9270 O.2   218  VAL218     -0.2718
    117  CB        13.1860   -4.5630   21.1340 C.3   218  VAL218      0.0266
    118  CG1       12.8790   -6.0400   21.4020 C.3   218  VAL218      0.0020
    119  CG2       11.9210   -3.7190   21.1350 C.3   218  VAL218      0.0020
    120  N         15.8900   -5.6090   23.0320 N.am  219  SER219     -0.1938
    121  CA        17.1690   -6.3020   23.0140 C.3   219  SER219      0.2055
    122  C         17.0720   -7.8130   23.0160 C.2   219  SER219      0.2643
    123  O         17.5430   -8.4600   22.0630 O.2   219  SER219     -0.2714
    124  CB        17.9970   -5.8260   24.2240 C.3   219  SER219      0.2130
    125  OG        19.3300   -6.3230   24.1060 O.3   219  SER219     -0.2179
    126  N         16.5050   -8.3990   24.0730 N.am  220  TRP220     -0.1959
    127  CA        16.4220   -9.8540   24.1020 C.3   220  TRP220      0.1771
    128  C         15.3020  -10.3320   25.0200 C.2   220  TRP220      0.2620
    129  O         14.7160   -9.5610   25.7640 O.2   220  TRP220     -0.2715
    130  CB        17.7290  -10.5090   24.5340 C.3   220  TRP220      0.0590
    131  CG        18.2690  -10.0800   25.8560 C.ar  220  TRP220      0.0006
    132  CD1       18.9790   -8.9530   26.1180 C.ar  220  TRP220      0.0946
    133  CD2       18.1520  -10.7700   27.1130 C.ar  220  TRP220      0.0152
    134  NE1       19.3080   -8.8960   27.4480 N.ar  220  TRP220     -0.2442
    135  CE2       18.8130   -9.9970   28.0830 C.ar  220  TRP220      0.0810
    136  CE3       17.5500  -11.9640   27.5160 C.ar  220  TRP220      0.0012
    137  CZ2       18.9030  -10.3580   29.4320 C.ar  220  TRP220      0.0191
    138  CZ3       17.6310  -12.3370   28.8480 C.ar  220  TRP220      0.0001
    139  CH2       18.3010  -11.5380   29.7810 C.ar  220  TRP220      0.0015
    140  N         15.0870  -11.6350   24.8990 N.am  221  GLY221     -0.1940
    141  CA        14.0730  -12.3920   25.6040 C.3   221  GLY221      0.2014
    142  C         14.3000  -13.8870   25.4290 C.2   221  GLY221      0.2639
    143  O         15.1190  -14.3110   24.6020 O.2   221  GLY221     -0.2714
    144  N         13.5760  -14.6480   26.2310 N.am  222  GLU222     -0.1963
    145  CA        13.6420  -16.1080   26.1480 C.3   222  GLU222      0.1733
    146  C         12.2400  -16.6140   25.8340 C.2   222  GLU222      0.2617
    147  O         11.3820  -16.7770   26.6930 O.2   222  GLU222     -0.2715
    148  CB        14.2000  -16.7130   27.4270 C.3   222  GLU222      0.0429
    149  CG        15.4450  -16.0280   27.9560 C.3   222  GLU222      0.1163
    150  CD        15.4180  -15.6920   29.4300 C.2   222  GLU222      0.3649
    151  OE1       14.6410  -14.8250   29.8870 O.co2 222  GLU222     -0.2457
    152  OE2       16.2210  -16.3050   30.1600 O.co2 222  GLU222     -0.2457
    153  N         12.0280  -16.8390   24.5450 N.am  223  GLY223     -0.1940
    154  CA        10.6870  -17.0420   24.0370 C.3   223  GLY223      0.2014
    155  C          9.9960  -15.6830   23.9460 C.2   223  GLY223      0.2639
    156  O         10.6620  -14.6560   24.0700 O.2   223  GLY223     -0.2714
    157  N          8.6890  -15.6990   23.7320 N.am  224  CYS224     -0.1967
    158  CA         7.9080  -14.4780   23.6680 C.3   224  CYS224      0.1712
    159  C          6.6340  -14.6490   24.4940 C.2   224  CYS224      0.2296
    160  O          5.9510  -15.6680   24.3890 O.2   224  CYS224     -0.2864
    161  CB         7.5690  -14.1130   22.2330 C.3   224  CYS224      0.0983
    162  SG         8.9730  -13.9880   21.0930 S.3   224  CYS224     -0.0798
    163  N          6.0430  -15.3920   27.4330 N.3   226  ARG226     -0.1245
    164  CA         5.8990  -16.6030   28.2570 C.3   226  ARG226      0.1563
    165  C          5.6130  -16.1980   29.6880 C.2   226  ARG226      0.2260
    166  O          6.0740  -15.1720   30.1830 O.2   226  ARG226     -0.2867
    167  CB         7.1390  -17.4900   28.1920 C.3   226  ARG226      0.0307
    168  CG         7.3530  -18.2130   26.8620 C.3   226  ARG226      0.0489
    169  CD         8.5030  -19.1940   26.9880 C.3   226  ARG226      0.2205
    170  NE         9.1000  -19.6420   25.7430 N.pl3 226  ARG226     -0.0865
    171  CZ        10.2080  -20.3650   25.6440 C.cat 226  ARG226      0.5346
    172  NH1       10.6800  -20.7260   24.4570 N.pl3 226  ARG226      0.1354
    173  NH2       10.8860  -20.7510   26.7150 N.pl3 226  ARG226      0.1354
    174  N         10.2370  -12.1100   30.9860 N.3   230  TYR230     -0.1227
    175  CA        10.1400  -10.6840   30.7510 C.3   230  TYR230      0.1736
    176  C         10.9730  -10.2950   29.5420 C.2   230  TYR230      0.2596
    177  O         11.9600  -10.9730   29.2870 O.2   230  TYR230     -0.2718
    178  CB        10.6150   -9.8840   31.9870 C.3   230  TYR230      0.0548
    179  CG         9.7100  -10.2410   33.1550 C.ar  230  TYR230     -0.0200
    180  CD1        8.4960   -9.6020   33.3080 C.ar  230  TYR230     -0.0009
    181  CD2       10.0960  -11.2410   34.0490 C.ar  230  TYR230     -0.0009
    182  CE1        7.6550   -9.9270   34.3590 C.ar  230  TYR230      0.0417
    183  CE2        9.2590  -11.5710   35.0990 C.ar  230  TYR230      0.0417
    184  CZ         8.0550  -10.9130   35.2420 C.ar  230  TYR230      0.1957
    185  OH         7.2080  -11.2290   36.2850 O.3   230  TYR230     -0.2866
    186  N         10.5760   -9.2540   28.8280 N.am  231  GLY231     -0.1942
    187  CA        11.4000   -8.7400   27.7380 C.3   231  GLY231      0.2014
    188  C         12.5170   -7.8690   28.3110 C.2   231  GLY231      0.2639
    189  O         12.2880   -7.1410   29.2870 O.2   231  GLY231     -0.2714
    190  N         13.7040   -7.9570   27.7180 N.am  232  PHE232     -0.1959
    191  CA        14.8410   -7.1580   28.1550 C.3   232  PHE232      0.1771
    192  C         15.1350   -6.0540   27.1480 C.2   232  PHE232      0.2619
    193  O         15.0360   -6.3400   25.9660 O.2   232  PHE232     -0.2715
    194  CB        16.1010   -8.0080   28.3900 C.3   232  PHE232      0.0574
    195  CG        16.0250   -8.6410   29.7810 C.ar  232  PHE232     -0.0200
    196  CD1       15.1830   -9.7170   29.9590 C.ar  232  PHE232     -0.0042
    197  CD2       16.7400   -8.1550   30.8500 C.ar  232  PHE232     -0.0042
    198  CE1       15.0530  -10.3190   31.1860 C.ar  232  PHE232     -0.0003
    199  CE2       16.6520   -8.7600   32.0870 C.ar  232  PHE232     -0.0003
    200  CZ        15.7950   -9.8360   32.2450 C.ar  232  PHE232     -0.0000
    201  N         15.4820   -4.8800   27.6780 N.am  233  TYR233     -0.1974
    202  CA        15.7030   -3.6770   26.8990 C.3   233  TYR233      0.1639
    203  C         17.0120   -2.9920   27.2330 C.2   233  TYR233      0.2290
    204  O         17.4300   -2.8610   28.3720 O.2   233  TYR233     -0.2864
    205  CB        14.5420   -2.6710   27.1120 C.3   233  TYR233      0.0560
    206  CG        13.2200   -3.3000   26.7200 C.ar  233  TYR233     -0.0198
    207  CD1       12.5290   -4.1030   27.6250 C.ar  233  TYR233     -0.0009
    208  CD2       12.6560   -3.1070   25.4670 C.ar  233  TYR233     -0.0009
    209  CE1       11.3340   -4.6860   27.2790 C.ar  233  TYR233      0.0417
    210  CE2       11.4510   -3.6900   25.1210 C.ar  233  TYR233      0.0417
    211  CZ        10.7960   -4.4750   26.0410 C.ar  233  TYR233      0.1957
    212  OH         9.5960   -5.0690   25.7120 O.3   233  TYR233     -0.2866
@<TRIPOS>BOND
     1    26    25    2
     2    25    24    1
     3   105   104   ar
     4    24    27    1
     5    24    23    1
     6   104   106   ar
     7   104   103    1
     8    27    28    1
     9    14    13    2
    10    11    12    1
    11    13    12    1
    12   103   102    1
    13   101   100    2
    14    28    30   ar
    15    28    29   ar
    16     4     3    2
    17    33    30   ar
    18    33    35   ar
    19   100    99    1
    20    12    15    1
    21   110   109    2
    22    30    32   ar
    23   102    99    1
    24    15    16    1
    25     3     2    1
    26    29    31   ar
    27    35    36   ar
    28    99    98    1
    29   111   108    1
    30   111   112    1
    31    32    31   ar
    32    32    34   ar
    33   109   108    1
    34    18    16   ar
    35    18    20   ar
    36    16    17   ar
    37   107   108    1
    38    36    34   ar
    39     2     1    1
    40     2     5    1
    41     8    10   ar
    42     8     6   ar
    43    98    94   am
    44    65    64    2
    45    95    94    2
    46    10     9   ar
    47    20    21   ar
    48    64    63    1
    49    94    93    1
    50     5     6    1
    51     6     7   ar
    52    17    19   ar
    53    97    96    1
    54    97   162    1
    55    96    93    1
    56     9     7   ar
    57    62    63    1
    58    63    66    1
    59    21    19   ar
    60    21    22    1
    61    93    92    1
    62    92    89   am
    63   116   115    2
    64    66    67    1
    65   162   161    1
    66   117   119    1
    67   117   118    1
    68   117   114    1
    69    67    68    1
    70    89    88    1
    71    89    90    2
    72    91    88    1
    73    88    87    1
    74   115   114    1
    75   115   120   am
    76   113   114    1
    77   123   122    2
    78   161   158    1
    79    61    59    1
    80    82    81    2
    81    68    70   ar
    82    68    69   ar
    83    60    59    1
    84   121   122    1
    85   121   120    1
    86   121   124    1
    87   122   126   am
    88    87    81   am
    89    81    80    1
    90    59    58    1
    91   158   157    1
    92   158   159    1
    93   157   155   am
    94   155   154    1
    95   155   156    2
    96   154   153    1
    97   126   127    1
    98   127   130    1
    99   127   128    1
   100   125   124    1
   101   160   159    2
   102   172   171    1
   103    58    55    1
   104   130   131    1
   105   153   146   am
   106   143   142    2
   107    80    79    1
   108    80    83    1
   109   140   128   am
   110   140   141    1
   111    55    54    1
   112    55    56    1
   113   128   129    2
   114    83    84    1
   115   210   208   ar
   116   210   211   ar
   117    84    85   ar
   118    84    86   ar
   119   142   141    1
   120   142   144   am
   121   208   206   ar
   122    57    56    2
   123    37    38    1
   124   171   170    2
   125   171   173    1
   126    54    48   am
   127   212   211    1
   128   170   169    1
   129   146   145    1
   130   146   147    2
   131   131   132   ar
   132   131   133   ar
   133   193   192    2
   134   211   209   ar
   135   132   134   ar
   136   145   144    1
   137   145   148    1
   138   206   205    1
   139   206   207   ar
   140    38    39    1
   141    38    41    1
   142    48    49    2
   143    48    47    1
   144   168   169    1
   145   168   167    1
   146   202   205    1
   147   202   203    1
   148   202   201    1
   149    39    40    2
   150    39    46   am
   151   133   136   ar
   152   133   135   ar
   153    46    47    1
   154   192   201   am
   155   192   191    1
   156   203   204    2
   157   209   207   ar
   158   148   149    1
   159   163   164    1
   160   134   135   ar
   161   136   138   ar
   162    47    50    1
   163   190   191    1
   164   190   188   am
   165   187   188    1
   166   187   186    1
   167   149   150    1
   168    41    42    1
   169   135   137   ar
   170   191   194    1
   171   167   164    1
   172   164   165    1
   173   188   189    2
   174   194   195    1
   175    52    51    2
   176   186   176   am
   177   138   139   ar
   178    50    51    1
   179    42    43    1
   180   177   176    2
   181    51    53   am
   182   150   151   ar
   183   150   152   ar
   184   137   139   ar
   185   176   175    1
   186   165   166    2
   187    78    76    1
   188    76    75    1
   189   195   196   ar
   190   195   197   ar
   191   196   198   ar
   192    77    75    1
   193    44    43   ar
   194    43    45   ar
   195    75    72    1
   196   175   174    1
   197   175   178    1
   198   197   199   ar
   199   198   200   ar
   200    72    71    1
   201    72    73    1
   202   178   179    1
   203   199   200   ar
   204    73    74    2
   205   179   180   ar
   206   179   181   ar
   207   180   182   ar
   208   181   183   ar
   209   182   184   ar
   210   183   184   ar
   211   184   185    1
