@<TRIPOS>MOLECULE
tmp/1ypzH00.pdb
 91 91 0 0 0
SMALL
GASTEIGER

@<TRIPOS>ATOM
      1  N        138.7210  109.6050   85.5980 N.3   131  LYS131     -0.1231
      2  CA       139.0270  110.9720   85.9990 C.3   131  LYS131      0.1678
      3  C        137.8030  111.8860   85.9280 C.2   131  LYS131      0.2434
      4  O        137.5000  112.4490   84.8790 O.2   131  LYS131     -0.2733
      5  CB       140.1540  111.5670   85.1560 C.3   131  LYS131      0.0284
      6  CG       140.5630  112.9540   85.6340 C.3   131  LYS131      0.0035
      7  CD       140.9260  112.9070   87.1210 C.3   131  LYS131      0.0206
      8  CE       141.2220  114.2840   87.7070 C.3   131  LYS131      0.1093
      9  NZ       141.6240  114.2160   89.1510 N.3   131  LYS131     -0.1314
     10  N        137.0870  112.0470   87.0600 N.am  132  PRO132     -0.2718
     11  CA       135.8890  112.8850   87.1730 C.3   132  PRO132      0.1535
     12  C        136.0450  114.3600   86.8230 C.2   132  PRO132      0.2599
     13  O        137.1500  114.8790   86.6720 O.2   132  PRO132     -0.2715
     14  CB       135.4710  112.6900   88.6270 C.3   132  PRO132      0.0310
     15  CG       135.8700  111.2900   88.8910 C.3   132  PRO132      0.0237
     16  CD       137.2530  111.2430   88.2850 C.3   132  PRO132      0.0939
     17  N        134.8970  115.0160   86.7090 N.am  133  THR133     -0.1937
     18  CA       134.7880  116.4240   86.3750 C.3   133  THR133      0.2028
     19  C        133.2980  116.6690   86.1460 C.2   133  THR133      0.2642
     20  O        132.7910  116.4590   85.0330 O.2   133  THR133     -0.2714
     21  CB       135.6130  116.7760   85.1080 C.3   133  THR133      0.1808
     22  OG1      135.1870  118.0590   84.6140 O.3   133  THR133     -0.2208
     23  CG2      135.4220  115.7050   84.0290 C.3   133  THR133      0.0379
     24  N        132.5920  117.1300   87.1730 N.am  134  ILE134     -0.1963
     25  CA       131.1590  117.3760   87.1470 C.3   134  ILE134      0.1727
     26  C        130.7010  118.6050   86.3380 C.2   134  ILE134      0.2616
     27  O        131.4960  119.4920   86.0520 O.2   134  ILE134     -0.2715
     28  CB       130.6780  117.5640   88.5960 C.3   134  ILE134      0.0290
     29  CG1      130.8810  116.2460   89.3400 C.3   134  ILE134      0.0022
     30  CG2      129.2090  117.9770   88.6540 C.3   134  ILE134      0.0023
     31  CD1      130.2710  116.2280   90.7170 C.3   134  ILE134      0.0001
     32  N        129.4140  118.6490   85.9800 N.am  135  PHE135     -0.1960
     33  CA       128.8190  119.7690   85.2330 C.3   135  PHE135      0.1771
     34  C        127.5180  120.2540   85.8920 C.2   135  PHE135      0.2619
     35  O        126.6410  119.4580   86.2280 O.2   135  PHE135     -0.2715
     36  CB       128.5440  119.3670   83.7870 C.3   135  PHE135      0.0574
     37  CG       129.7710  119.3370   82.9310 C.ar  135  PHE135     -0.0200
     38  CD1      130.8170  118.4700   83.2240 C.ar  135  PHE135     -0.0042
     39  CD2      129.8870  120.1790   81.8320 C.ar  135  PHE135     -0.0042
     40  CE1      131.9630  118.4380   82.4330 C.ar  135  PHE135     -0.0003
     41  CE2      131.0290  120.1550   81.0330 C.ar  135  PHE135     -0.0003
     42  CZ       132.0690  119.2840   81.3340 C.ar  135  PHE135     -0.0000
     43  N        127.4040  121.5700   86.0630 N.am  136  LEU136     -0.1977
     44  CA       126.2470  122.1980   86.7130 C.3   136  LEU136      0.1596
     45  C        124.9820  122.3610   85.8680 C.2   136  LEU136      0.2287
     46  O        125.0540  122.6730   84.6760 O.2   136  LEU136     -0.2864
     47  CB       126.6440  123.5810   87.2400 C.3   136  LEU136      0.0297
     48  CG       127.6860  123.6940   88.3540 C.3   136  LEU136      0.0022
     49  CD1      128.1130  125.1450   88.5060 C.3   136  LEU136      0.0001
     50  CD2      127.1020  123.1730   89.6540 C.3   136  LEU136      0.0001
     51  N        129.4130  113.7790   94.4290 N.3   224  PHE224     -0.1241
     52  CA       128.3570  114.7280   94.8010 C.3   224  PHE224      0.1605
     53  C        128.3810  116.0360   93.9910 C.2   224  PHE224      0.2264
     54  O        129.3590  116.3270   93.3110 O.2   224  PHE224     -0.2867
     55  CB       128.5030  115.0270   96.2920 C.3   224  PHE224      0.0534
     56  CG       129.9380  115.1960   96.7300 C.ar  224  PHE224     -0.0203
     57  CD1      130.7130  116.2370   96.2290 C.ar  224  PHE224     -0.0042
     58  CD2      130.5240  114.2970   97.6170 C.ar  224  PHE224     -0.0042
     59  CE1      132.0490  116.3830   96.6020 C.ar  224  PHE224     -0.0003
     60  CE2      131.8610  114.4350   97.9960 C.ar  224  PHE224     -0.0003
     61  CZ       132.6230  115.4810   97.4860 C.ar  224  PHE224     -0.0000
     62  N        127.9490  119.6600   95.0890 N.3   226  PRO226     -0.2102
     63  CA       127.9050  120.7990   96.0210 C.3   226  PRO226      0.1504
     64  C        127.3250  122.1050   95.4510 C.2   226  PRO226      0.2576
     65  O        127.1180  122.2370   94.2450 O.2   226  PRO226     -0.2718
     66  CB       129.3670  120.9430   96.4580 C.3   226  PRO226      0.0282
     67  CG       129.9030  119.5280   96.3300 C.3   226  PRO226      0.0208
     68  CD       129.3010  119.0800   95.0270 C.3   226  PRO226      0.0893
     69  N        127.0700  123.0690   96.3340 N.am  227  SER227     -0.1938
     70  CA       126.5120  124.3570   95.9270 C.3   227  SER227      0.2055
     71  C        127.5880  125.4220   95.8430 C.2   227  SER227      0.2642
     72  O        128.7790  125.1230   95.9290 O.2   227  SER227     -0.2714
     73  CB       125.4230  124.8140   96.9080 C.3   227  SER227      0.2130
     74  OG       125.9710  125.2610   98.1400 O.3   227  SER227     -0.2179
     75  N        127.1780  126.6730   95.6890 N.am  228  ILE228     -0.1977
     76  CA       128.1840  127.7100   95.5940 C.3   228  ILE228      0.1596
     77  C        128.0580  128.9470   96.4640 C.2   228  ILE228      0.2287
     78  O        126.9690  129.3020   96.9450 O.2   228  ILE228     -0.2864
     79  CB       128.3610  128.1830   94.1330 C.3   228  ILE228      0.0276
     80  CG1      129.8300  128.0330   93.7120 C.3   228  ILE228      0.0022
     81  CG2      127.9330  129.6390   93.9960 C.3   228  ILE228      0.0022
     82  CD1      130.0890  128.3000   92.2430 C.3   228  ILE228      0.0001
     83  N        131.5800  132.1070   96.7050 N.3   230  LYS230     -0.1245
     84  CA       132.9900  132.2780   96.3900 C.3   230  LYS230      0.1561
     85  C        133.4140  133.6840   96.5910 C.2   230  LYS230      0.2260
     86  O        133.9800  134.2600   95.6650 O.2   230  LYS230     -0.2867
     87  CB       133.2690  131.8120   94.9890 C.3   230  LYS230      0.0271
     88  CG       132.9040  130.3510   94.6500 C.3   230  LYS230      0.0035
     89  CD       133.3790  129.9440   93.2860 C.3   230  LYS230      0.0206
     90  CE       133.3640  128.4880   93.1330 C.3   230  LYS230      0.1093
     91  NZ       133.6830  127.9040   91.8190 N.3   230  LYS230     -0.1314
@<TRIPOS>BOND
     1    41    42   ar
     2    41    39   ar
     3    42    40   ar
     4    39    37   ar
     5    40    38   ar
     6    37    38   ar
     7    37    36    1
     8    36    33    1
     9    23    21    1
    10    22    21    1
    11    46    45    2
    12     4     3    2
    13    20    19    2
    14    21    18    1
    15     5     6    1
    16     5     2    1
    17    33    34    1
    18    33    32    1
    19     1     2    1
    20     6     7    1
    21    45    44    1
    22    34    43   am
    23    34    35    2
    24     3     2    1
    25     3    10   am
    26    32    26   am
    27    27    26    2
    28    43    44    1
    29    19    18    1
    30    19    24   am
    31    26    25    1
    32    18    17    1
    33    13    12    2
    34    17    12   am
    35    44    47    1
    36    12    11    1
    37    10    11    1
    38    10    16    1
    39     7     8    1
    40    25    24    1
    41    25    28    1
    42    11    14    1
    43    47    48    1
    44     8     9    1
    45    16    15    1
    46    48    49    1
    47    48    50    1
    48    28    30    1
    49    28    29    1
    50    14    15    1
    51    29    31    1
    52    91    90    1
    53    82    80    1
    54    90    89    1
    55    89    88    1
    56    54    53    2
    57    80    79    1
    58    53    52    1
    59    81    79    1
    60    79    76    1
    61    65    64    2
    62    51    52    1
    63    88    87    1
    64    52    55    1
    65    87    84    1
    66    68    62    1
    67    68    67    1
    68    62    63    1
    69    64    63    1
    70    64    69   am
    71    76    75    1
    72    76    77    1
    73    86    85    2
    74    75    71   am
    75    71    70    1
    76    71    72    2
    77    70    69    1
    78    70    73    1
    79    63    66    1
    80    57    59   ar
    81    57    56   ar
    82    55    56    1
    83    67    66    1
    84    84    85    1
    85    84    83    1
    86    77    78    2
    87    59    61   ar
    88    56    58   ar
    89    73    74    1
    90    61    60   ar
    91    58    60   ar
