@<TRIPOS>MOLECULE
tmp/1yq3A01.pdb
 118 111 0 0 0
SMALL
GASTEIGER

@<TRIPOS>ATOM
      1  N         20.0570   12.4410  117.7190 N.3    53  ALA53      -0.1231
      2  CA        19.3780   11.6210  118.7420 C.3    53  ALA53       0.1694
      3  C         18.0250   11.0890  118.2780 C.2    53  ALA53       0.2592
      4  O         17.3300   11.7270  117.4940 O.2    53  ALA53      -0.2718
      5  CB        19.2940   12.3800  120.1030 C.3    53  ALA53       0.0304
      6  N         17.6810    9.8730  118.7240 N.am   54  GLN54      -0.1966
      7  CA        16.4920    9.2370  118.1940 C.3    54  GLN54       0.1733
      8  C         15.3100    8.7980  119.0910 C.2    54  GLN54       0.2617
      9  O         14.1850    9.3150  118.9330 O.2    54  GLN54      -0.2715
     10  CB        16.9210    8.0360  117.3860 C.3    54  GLN54       0.0408
     11  CG        17.9640    8.2410  116.2220 C.3    54  GLN54       0.0908
     12  CD        18.3990    6.8520  115.6000 C.2    54  GLN54       0.2608
     13  OE1       17.8380    5.7770  115.9770 O.2    54  GLN54      -0.2717
     14  NE2       19.3810    6.8610  114.7000 N.am   54  GLN54      -0.0878
     15  N         15.5500    7.8440  119.9890 N.am   55  GLY55      -0.1940
     16  CA        14.4720    7.2740  120.7810 C.3    55  GLY55       0.2014
     17  C         13.6270    8.1510  121.7030 C.2    55  GLY55       0.2639
     18  O         12.4040    7.9310  121.8460 O.2    55  GLY55      -0.2714
     19  N         14.2210    9.1450  122.3420 N.am   56  GLY56      -0.1954
     20  CA        13.3870    9.9620  123.2000 C.3    56  GLY56       0.1869
     21  C         14.0540   10.6730  124.3410 C.2    56  GLY56       0.2309
     22  O         15.3250   10.7510  124.4530 O.2    56  GLY56      -0.2863
     23  N         11.5700    1.9060  127.2800 N.3   123  PHE123     -0.1241
     24  CA        12.9800    2.0860  126.9580 C.3   123  PHE123      0.1605
     25  C         13.6950    1.2340  127.9820 C.2   123  PHE123      0.2264
     26  O         13.0850    0.8300  128.9450 O.2   123  PHE123     -0.2867
     27  CB        13.4540    3.5830  127.0590 C.3   123  PHE123      0.0534
     28  CG        14.1530    4.0790  125.7800 C.ar  123  PHE123     -0.0203
     29  CD1       13.4610    4.1670  124.6170 C.ar  123  PHE123     -0.0042
     30  CD2       15.5320    4.3850  125.7560 C.ar  123  PHE123     -0.0042
     31  CE1       14.0790    4.5410  123.4450 C.ar  123  PHE123     -0.0003
     32  CE2       16.1570    4.7670  124.5840 C.ar  123  PHE123     -0.0003
     33  CZ        15.4800    4.8480  123.4630 C.ar  123  PHE123     -0.0000
     34  N         26.5710    1.3860  123.1110 N.3   246  HIS246     -0.1241
     35  CA        25.1440    1.2630  122.8810 C.3   246  HIS246      0.1621
     36  C         24.9740   -0.1340  122.2610 C.2   246  HIS246      0.2264
     37  O         25.7340   -0.5200  121.3690 O.2   246  HIS246     -0.2867
     38  CB        24.6550    2.3400  121.8920 C.3   246  HIS246      0.0745
     39  CG        23.1590    2.3360  121.6820 C.ar  246  HIS246      0.0817
     40  ND1       22.5000    1.2900  121.0670 N.ar  246  HIS246     -0.2268
     41  CD2       22.2050    3.2590  122.0020 C.ar  246  HIS246      0.1154
     42  CE1       21.2010    1.5720  121.0100 C.ar  246  HIS246      0.1986
     43  NE2       20.9940    2.7610  121.5740 N.ar  246  HIS246     -0.2212
     44  N         23.8460    4.7430  114.6890 N.3   256  LEU256     -0.1245
     45  CA        22.9660    4.2960  115.7360 C.3   256  LEU256      0.1561
     46  C         21.6220    3.7110  115.2290 C.2   256  LEU256      0.2260
     47  O         21.0260    4.2450  114.2890 O.2   256  LEU256     -0.2867
     48  CB        22.6330    5.4660  116.7310 C.3   256  LEU256      0.0270
     49  CG        21.5060    5.0050  117.6870 C.3   256  LEU256      0.0019
     50  CD1       22.2740    4.4010  118.7880 C.3   256  LEU256      0.0001
     51  CD2       20.4780    5.9600  118.1600 C.3   256  LEU256      0.0001
     52  N         18.0770    3.0720  116.9730 N.3   258  THR258     -0.1203
     53  CA        17.4890    3.2800  118.3000 C.3   258  THR258      0.1994
     54  C         17.0760    2.0780  119.1840 C.2   258  THR258      0.2617
     55  O         16.5890    1.0990  118.6950 O.2   258  THR258     -0.2717
     56  CB        16.2290    4.2420  118.2540 C.3   258  THR258      0.1784
     57  OG1       15.8620    4.5650  119.6040 O.3   258  THR258     -0.2211
     58  CG2       14.9630    3.5960  117.4480 C.3   258  THR258      0.0376
     59  N         17.2340    2.2610  120.4970 N.am  259  GLU259     -0.1979
     60  CA        16.7930    1.3280  121.5070 C.3   259  GLU259      0.1602
     61  C         15.2350    1.3930  121.4710 C.2   259  GLU259      0.2287
     62  O         14.5810    0.5440  122.0210 O.2   259  GLU259     -0.2864
     63  CB        17.3220    1.7580  122.8770 C.3   259  GLU259      0.0415
     64  CG        16.9150    0.8760  124.1180 C.3   259  GLU259      0.1163
     65  CD        17.9110    1.0760  125.2890 C.2   259  GLU259      0.3649
     66  OE1       17.5060    1.3910  126.4170 O.co2 259  GLU259     -0.2457
     67  OE2       19.1420    0.9210  125.0960 O.co2 259  GLU259     -0.2457
     68  N         21.9600   -0.9510  129.2650 N.3   290  ARG290     -0.1245
     69  CA        22.8380   -1.0310  128.1070 C.3   290  ARG290      0.1563
     70  C         24.1570   -1.7680  128.3900 C.2   290  ARG290      0.2260
     71  O         24.6050   -2.6040  127.5520 O.2   290  ARG290     -0.2867
     72  CB        23.1300    0.3990  127.5980 C.3   290  ARG290      0.0307
     73  CG        21.9440    1.0240  126.8740 C.3   290  ARG290      0.0489
     74  CD        22.2060    2.4560  126.3460 C.3   290  ARG290      0.2205
     75  NE        21.0430    2.9160  125.5580 N.pl3 290  ARG290     -0.0865
     76  CZ        20.8540    4.1600  125.0650 C.cat 290  ARG290      0.5346
     77  NH1       21.7710    5.1130  125.3020 N.pl3 290  ARG290      0.1354
     78  NH2       19.7950    4.4340  124.2610 N.pl3 290  ARG290      0.1354
     79  N         29.1900    4.9630  122.0060 N.3   357  HIS357     -0.1241
     80  CA        28.1160    5.8960  121.8550 C.3   357  HIS357      0.1621
     81  C         28.0700    7.1850  122.7020 C.2   357  HIS357      0.2264
     82  O         27.7900    8.3050  122.1890 O.2   357  HIS357     -0.2867
     83  CB        26.8690    5.1050  122.1560 C.3   357  HIS357      0.0745
     84  CG        25.5870    5.8870  122.0700 C.ar  357  HIS357      0.0817
     85  ND1       25.0840    6.3400  120.8720 N.ar  357  HIS357     -0.2268
     86  CD2       24.5980    6.0570  122.9750 C.ar  357  HIS357      0.1154
     87  CE1       23.8350    6.7250  121.0410 C.ar  357  HIS357      0.1986
     88  NE2       23.5160    6.5580  122.3070 N.ar  357  HIS357     -0.2212
     89  N         24.5650    5.0120  131.7420 N.3   401  ARG401     -0.1245
     90  CA        23.4410    5.8510  131.4970 C.3   401  ARG401      0.1563
     91  C         22.2570    5.1500  130.9590 C.2   401  ARG401      0.2260
     92  O         22.4520    4.3430  130.1180 O.2   401  ARG401     -0.2867
     93  CB        23.8300    6.9660  130.5000 C.3   401  ARG401      0.0307
     94  CG        22.6440    7.9450  130.1960 C.3   401  ARG401      0.0489
     95  CD        23.0540    9.1340  129.3320 C.3   401  ARG401      0.2205
     96  NE        23.3780    8.7760  127.9560 N.pl3 401  ARG401     -0.0865
     97  CZ        22.4960    8.5130  126.9730 C.cat 401  ARG401      0.5346
     98  NH1       21.1240    8.5490  127.1700 N.pl3 401  ARG401      0.1354
     99  NH2       23.0120    8.3330  125.7500 N.pl3 401  ARG401      0.1354
    100  N         17.4910    7.7260  126.8710 N.3   404  ALA404     -0.1245
    101  CA        16.5440    8.8350  126.9730 C.3   404  ALA404      0.1562
    102  C         16.7560    9.6960  128.1280 C.2   404  ALA404      0.2260
    103  O         15.9720   10.6360  128.3760 O.2   404  ALA404     -0.2867
    104  CB        15.0430    8.3850  126.8470 C.3   404  ALA404      0.0290
    105  N         19.8880   11.2990  128.4580 N.3   406  SER406     -0.1202
    106  CA        20.8370   12.3750  128.0960 C.3   406  SER406      0.2020
    107  C         20.1500   13.6760  127.5680 C.2   406  SER406      0.2618
    108  O         20.4770   14.8230  128.0170 O.2   406  SER406     -0.2717
    109  CB        21.8870   11.8700  127.0750 C.3   406  SER406      0.2103
    110  OG        22.7020   12.9720  126.6900 O.3   406  SER406     -0.2182
    111  N         19.1930   13.5170  126.6470 N.am  407  LEU407     -0.1979
    112  CA        18.4870   14.7050  126.1760 C.3   407  LEU407      0.1596
    113  C         17.8430   15.4220  127.3080 C.2   407  LEU407      0.2287
    114  O         17.7440   16.6570  127.2670 O.2   407  LEU407     -0.2864
    115  CB        17.4350   14.4060  125.1900 C.3   407  LEU407      0.0297
    116  CG        18.0520   13.8400  123.9020 C.3   407  LEU407      0.0022
    117  CD1       16.7780   13.2090  123.0740 C.3   407  LEU407      0.0001
    118  CD2       18.8880   14.9280  123.0310 C.3   407  LEU407      0.0001
@<TRIPOS>BOND
     1    47    46    2
     2    44    45    1
     3    14    12   am
     4    46    45    1
     5    12    13    2
     6    12    11    1
     7    45    48    1
     8    11    10    1
     9    48    49    1
    10    52    53    1
    11    10     7    1
    12    58    56    1
    13     4     3    2
    14    49    51    1
    15    49    50    1
    16     1     2    1
    17     7     6    1
    18     7     8    1
    19    56    53    1
    20    56    57    1
    21     3     6   am
    22     3     2    1
    23    53    54    1
    24    55    54    2
    25     2     5    1
    26     9     8    2
    27     8    15   am
    28    54    59   am
    29    15    16    1
    30    59    60    1
    31    16    17    1
    32    85    87   ar
    33    85    84   ar
    34    42    40   ar
    35    42    43   ar
    36    87    88   ar
    37    40    39   ar
    38    37    36    2
    39    61    60    1
    40    61    62    2
    41    60    63    1
    42    43    41   ar
    43    39    38    1
    44    39    41   ar
    45    17    18    2
    46    17    19   am
    47    80    79    1
    48    80    83    1
    49    80    81    1
    50    38    35    1
    51    84    83    1
    52    84    86   ar
    53    82    81    2
    54    36    35    1
    55    88    86   ar
    56    19    20    1
    57    63    64    1
    58    35    34    1
    59   118   116    1
    60   117   116    1
    61    20    21    1
    62    31    33   ar
    63    31    29   ar
    64    33    32   ar
    65   116   115    1
    66    64    65    1
    67    78    76    1
    68    21    22    2
    69    32    30   ar
    70    29    28   ar
    71    76    77    1
    72    76    75    2
    73    67    65   ar
    74   115   112    1
    75    65    66   ar
    76    75    74    1
    77    99    97    1
    78    30    28   ar
    79    28    27    1
    80   112   111    1
    81   112   113    1
    82    74    73    1
    83   111   107   am
    84   110   109    1
    85   104   101    1
    86   100   101    1
    87    73    72    1
    88    24    27    1
    89    24    23    1
    90    24    25    1
    91   101   102    1
    92    97    98    1
    93    97    96    2
    94   109   106    1
    95   114   113    2
    96    71    70    2
    97   107   108    2
    98   107   106    1
    99    72    69    1
   100    96    95    1
   101    25    26    2
   102   106   105    1
   103    69    70    1
   104    69    68    1
   105   102   103    2
   106    95    94    1
   107    92    91    2
   108    94    93    1
   109    93    90    1
   110    91    90    1
   111    90    89    1
