@<TRIPOS>MOLECULE
tmp/1yq3D00.pdb
 91 84 0 0 0
SMALL
GASTEIGER

@<TRIPOS>ATOM
      1  N         -4.2810   33.5270   87.1150 N.3    13  ARG13      -0.1245
      2  CA        -4.7790   32.1810   86.8150 C.3    13  ARG13       0.1563
      3  C         -6.1710   32.2640   86.2710 C.2    13  ARG13       0.2260
      4  O         -6.5100   31.4700   85.3740 O.2    13  ARG13      -0.2867
      5  CB        -4.7100   31.2560   88.0730 C.3    13  ARG13       0.0307
      6  CG        -3.2900   30.5840   88.2030 C.3    13  ARG13       0.0489
      7  CD        -2.5720   30.8050   89.4620 C.3    13  ARG13       0.2205
      8  NE        -1.6340   31.8550   89.2150 N.pl3  13  ARG13      -0.0865
      9  CZ        -0.4480   31.7050   88.6370 C.cat  13  ARG13       0.5346
     10  NH1       -0.0100   30.5370   88.2740 N.pl3  13  ARG13       0.1354
     11  NH2        0.2550   32.7850   88.3010 N.pl3  13  ARG13       0.1354
     12  N         -5.6940   33.0780   82.7210 N.3    16  SER16      -0.1217
     13  CA        -5.1080   31.9800   81.9440 C.3    16  SER16       0.1889
     14  C         -6.2670   31.0240   81.5820 C.2    16  SER16       0.2288
     15  O         -6.4080   30.6160   80.4760 O.2    16  SER16      -0.2866
     16  CB        -4.0790   31.2670   82.8090 C.3    16  SER16       0.2089
     17  OG        -2.9270   32.1100   82.9140 O.3    16  SER16      -0.2183
     18  N         -8.5770   32.4500   78.8640 N.3    19  LEU19      -0.1231
     19  CA        -8.0090   32.2950   77.5690 C.3    19  LEU19       0.1693
     20  C         -8.1050   30.8480   77.0800 C.2    19  LEU19       0.2591
     21  O         -8.2910   30.5640   75.8970 O.2    19  LEU19      -0.2718
     22  CB        -6.5640   32.7390   77.6920 C.3    19  LEU19       0.0284
     23  CG        -5.6770   32.8570   76.5040 C.3    19  LEU19       0.0019
     24  CD1       -6.3440   33.7760   75.3980 C.3    19  LEU19       0.0001
     25  CD2       -4.3570   33.4830   77.0380 C.3    19  LEU19       0.0001
     26  N         -7.9170   29.8880   77.9660 N.am   20  LEU20      -0.1980
     27  CA        -8.0160   28.5130   77.5460 C.3    20  LEU20       0.1596
     28  C         -9.4550   28.3630   76.9970 C.2    20  LEU20       0.2287
     29  O         -9.6660   27.8670   75.9290 O.2    20  LEU20      -0.2864
     30  CB        -7.8490   27.6370   78.7850 C.3    20  LEU20       0.0297
     31  CG        -7.9850   26.1390   78.6080 C.3    20  LEU20       0.0022
     32  CD1       -7.0640   25.6550   77.5360 C.3    20  LEU20       0.0001
     33  CD2       -7.6550   25.4980   79.9580 C.3    20  LEU20       0.0001
     34  N        -10.1610   29.3880   73.2920 N.3    23  LEU23      -0.1245
     35  CA        -9.6520   28.6240   72.1550 C.3    23  LEU23       0.1561
     36  C        -10.8380   27.8340   71.5640 C.2    23  LEU23       0.2260
     37  O        -11.1160   27.9240   70.3590 O.2    23  LEU23      -0.2867
     38  CB        -8.4570   27.7220   72.5330 C.3    23  LEU23       0.0270
     39  CG        -7.2210   28.5470   72.9540 C.3    23  LEU23       0.0019
     40  CD1       -5.9730   27.6370   72.8660 C.3    23  LEU23       0.0001
     41  CD2       -6.9670   29.7790   72.0900 C.3    23  LEU23       0.0001
     42  N         -5.4000   37.9240   75.3510 N.3    42  LEU42      -0.1245
     43  CA        -4.0670   37.7230   74.8930 C.3    42  LEU42       0.1561
     44  C         -3.1780   38.8660   75.4120 C.2    42  LEU42       0.2260
     45  O         -1.9590   38.6860   75.7010 O.2    42  LEU42      -0.2867
     46  CB        -4.0110   37.7440   73.3400 C.3    42  LEU42       0.0270
     47  CG        -4.5950   36.4940   72.6290 C.3    42  LEU42       0.0019
     48  CD1       -4.9130   36.7630   71.1120 C.3    42  LEU42       0.0001
     49  CD2       -3.5340   35.3080   72.8060 C.3    42  LEU42       0.0001
     50  N         -2.8960   38.5040   79.5740 N.3    45  HIS45      -0.1226
     51  CA        -2.0800   37.3500   79.9050 C.3    45  HIS45       0.1752
     52  C         -0.6280   37.5430   79.4710 C.2    45  HIS45       0.2596
     53  O          0.3240   37.1880   80.1620 O.2    45  HIS45      -0.2718
     54  CB        -2.5880   36.1130   79.1150 C.3    45  HIS45       0.0759
     55  CG        -1.8540   34.8480   79.4320 C.ar   45  HIS45       0.0818
     56  ND1       -2.0280   34.2100   80.6470 N.ar   45  HIS45      -0.2268
     57  CD2       -1.0210   34.0670   78.6910 C.ar   45  HIS45       0.1154
     58  CE1       -1.3350   33.0650   80.6400 C.ar   45  HIS45       0.1986
     59  NE2       -0.7160   32.9490   79.4660 N.ar   45  HIS45      -0.2212
     60  N         -0.4210   38.0880   78.3010 N.am   46  GLY46      -0.1957
     61  CA         0.9610   38.2600   77.9080 C.3    46  GLY46       0.1869
     62  C          1.6770   39.3810   78.6740 C.2    46  GLY46       0.2309
     63  O          2.9180   39.3210   78.9150 O.2    46  GLY46      -0.2863
     64  N          2.4640   37.9910   82.0250 N.3    49  GLY49      -0.1210
     65  CA         3.4700   36.9990   81.8020 C.3    49  GLY49       0.1956
     66  C          4.8280   37.5660   81.6100 C.2    49  GLY49       0.2611
     67  O          5.7890   37.1000   82.2330 O.2    49  GLY49      -0.2717
     68  N          4.9590   38.5010   80.6710 N.am   50  LEU50      -0.1979
     69  CA         6.2530   39.1300   80.4390 C.3    50  LEU50       0.1596
     70  C          6.6980   39.8950   81.6580 C.2    50  LEU50       0.2287
     71  O          7.8910   40.0200   81.8850 O.2    50  LEU50      -0.2864
     72  CB         6.2200   40.0120   79.2220 C.3    50  LEU50       0.0297
     73  CG         5.9690   39.3440   77.8730 C.3    50  LEU50       0.0022
     74  CD1        6.0640   40.5280   76.8060 C.3    50  LEU50       0.0001
     75  CD2        7.0150   38.2350   77.5400 C.3    50  LEU50       0.0001
     76  N          6.4930   38.7920   84.7890 N.3    52  GLN52      -0.1231
     77  CA         7.0410   37.8300   85.7810 C.3    52  GLN52       0.1698
     78  C          8.4190   37.6210   85.2550 C.2    52  GLN52       0.2592
     79  O          9.3880   37.5210   86.0030 O.2    52  GLN52      -0.2718
     80  CB         6.2800   36.4870   85.7710 C.3    52  GLN52       0.0381
     81  CG         4.8520   36.5900   86.2430 C.3    52  GLN52       0.0905
     82  CD         4.8550   36.9600   87.7160 C.2    52  GLN52       0.2608
     83  OE1        3.7920   37.2220   88.3270 O.2    52  GLN52      -0.2717
     84  NE2        6.0490   36.9260   88.3250 N.am   52  GLN52      -0.0878
     85  N          8.5480   37.5880   83.9540 N.am   53  VAL53      -0.1980
     86  CA         9.8780   37.3780   83.3960 C.3    53  VAL53       0.1595
     87  C         10.8820   38.5210   83.7110 C.2    53  VAL53       0.2287
     88  O         12.1170   38.3040   83.9900 O.2    53  VAL53      -0.2864
     89  CB         9.7450   37.2200   81.8740 C.3    53  VAL53       0.0276
     90  CG1       11.0650   37.1040   81.2050 C.3    53  VAL53       0.0022
     91  CG2        8.9470   35.9690   81.5970 C.3    53  VAL53       0.0022
@<TRIPOS>BOND
     1    37    36    2
     2    48    47    1
     3    36    35    1
     4    41    39    1
     5    35    38    1
     6    35    34    1
     7    38    39    1
     8    47    49    1
     9    47    46    1
    10    40    39    1
    11    46    43    1
    12    43    42    1
    13    43    44    1
    14    24    23    1
    15    44    45    2
    16    21    20    2
    17    29    28    2
    18    23    25    1
    19    23    22    1
    20    74    73    1
    21    28    27    1
    22    20    19    1
    23    20    26   am
    24    32    31    1
    25    75    73    1
    26    27    26    1
    27    27    30    1
    28    19    22    1
    29    19    18    1
    30    73    72    1
    31    61    60    1
    32    61    62    1
    33    60    52   am
    34    31    30    1
    35    31    33    1
    36    62    63    2
    37    57    55   ar
    38    57    59   ar
    39    54    55    1
    40    54    51    1
    41    72    69    1
    42    55    56   ar
    43    59    58   ar
    44    52    51    1
    45    52    53    2
    46    50    51    1
    47    69    68    1
    48    69    70    1
    49    15    14    2
    50    58    56   ar
    51    68    66   am
    52    90    89    1
    53    14    13    1
    54    91    89    1
    55    66    65    1
    56    66    67    2
    57    70    71    2
    58    65    64    1
    59    89    86    1
    60    13    12    1
    61    13    16    1
    62    16    17    1
    63    86    87    1
    64    86    85    1
    65    87    88    2
    66    85    78   am
    67    76    77    1
    68    78    77    1
    69    78    79    2
    70     4     3    2
    71    80    77    1
    72    80    81    1
    73    81    82    1
    74     3     2    1
    75     2     1    1
    76     2     5    1
    77    82    84   am
    78    82    83    2
    79     5     6    1
    80     6     7    1
    81    10     9    1
    82    11     9    1
    83     9     8    2
    84     8     7    1
