@<TRIPOS>MOLECULE
tmp/1yq3D02.pdb
 74 69 0 0 0
SMALL
GASTEIGER

@<TRIPOS>ATOM
      1  N        -10.1610   29.3880   73.2920 N.3    23  LEU23      -0.1245
      2  CA        -9.6520   28.6240   72.1550 C.3    23  LEU23       0.1561
      3  C        -10.8380   27.8340   71.5640 C.2    23  LEU23       0.2260
      4  O        -11.1160   27.9240   70.3590 O.2    23  LEU23      -0.2867
      5  CB        -8.4570   27.7220   72.5330 C.3    23  LEU23       0.0270
      6  CG        -7.2210   28.5470   72.9540 C.3    23  LEU23       0.0019
      7  CD1       -5.9730   27.6370   72.8660 C.3    23  LEU23       0.0001
      8  CD2       -6.9670   29.7790   72.0900 C.3    23  LEU23       0.0001
      9  N        -13.3230   30.1490   69.9330 N.3    26  ALA26      -0.1231
     10  CA       -12.9660   30.7550   68.6710 C.3    26  ALA26       0.1694
     11  C        -13.2770   29.7880   67.5370 C.2    26  ALA26       0.2592
     12  O        -13.5990   30.1800   66.3820 O.2    26  ALA26      -0.2718
     13  CB       -11.4610   31.0950   68.6550 C.3    26  ALA26       0.0304
     14  N        -13.1060   28.5010   67.8600 N.am   27  TYR27      -0.1976
     15  CA       -13.3090   27.4690   66.8520 C.3    27  TYR27       0.1639
     16  C        -14.7870   27.2170   66.5670 C.2    27  TYR27       0.2290
     17  O        -15.1760   27.0830   65.4410 O.2    27  TYR27      -0.2864
     18  CB       -12.6490   26.1890   67.2990 C.3    27  TYR27       0.0560
     19  CG       -12.8320   25.0800   66.3130 C.ar   27  TYR27      -0.0198
     20  CD1      -11.9190   24.9070   65.2840 C.ar   27  TYR27      -0.0009
     21  CD2      -13.9620   24.2460   66.3680 C.ar   27  TYR27      -0.0009
     22  CE1      -12.1070   23.9430   64.3260 C.ar   27  TYR27       0.0417
     23  CE2      -14.1770   23.2770   65.4220 C.ar   27  TYR27       0.0417
     24  CZ       -13.2440   23.1220   64.3950 C.ar   27  TYR27       0.1957
     25  OH       -13.4050   22.1430   63.4150 O.3    27  TYR27      -0.2866
     26  N        -16.7780   31.6160   66.1960 N.3    30  PRO30      -0.2116
     27  CA       -16.0120   32.8160   65.7900 C.3    30  PRO30       0.1372
     28  C        -16.8630   34.0480   65.4960 C.2    30  PRO30       0.2244
     29  O        -18.0360   33.9400   65.1190 O.2    30  PRO30      -0.2868
     30  CB       -15.2120   32.3400   64.5810 C.3    30  PRO30       0.0268
     31  CG       -16.0510   31.0840   64.0480 C.3    30  PRO30       0.0207
     32  CD       -16.5810   30.4670   65.2910 C.3    30  PRO30       0.0892
     33  N        -10.4760   37.8920   72.7720 N.3    38  LEU38      -0.1245
     34  CA        -9.1510   37.3470   72.6150 C.3    38  LEU38       0.1561
     35  C         -8.1620   38.4670   72.6100 C.2    38  LEU38       0.2260
     36  O         -7.0510   38.2670   73.0090 O.2    38  LEU38      -0.2867
     37  CB        -9.0400   36.5690   71.2740 C.3    38  LEU38       0.0270
     38  CG        -9.5580   35.0780   71.2290 C.3    38  LEU38       0.0019
     39  CD1       -9.4780   34.6280   69.7780 C.3    38  LEU38       0.0001
     40  CD2       -8.6210   34.1090   71.9970 C.3    38  LEU38       0.0001
     41  N         -5.4000   37.9240   75.3510 N.3    42  LEU42      -0.1245
     42  CA        -4.0670   37.7230   74.8930 C.3    42  LEU42       0.1561
     43  C         -3.1780   38.8660   75.4120 C.2    42  LEU42       0.2260
     44  O         -1.9590   38.6860   75.7010 O.2    42  LEU42      -0.2867
     45  CB        -4.0110   37.7440   73.3400 C.3    42  LEU42       0.0270
     46  CG        -4.5950   36.4940   72.6290 C.3    42  LEU42       0.0019
     47  CD1       -4.9130   36.7630   71.1120 C.3    42  LEU42       0.0001
     48  CD2       -3.5340   35.3080   72.8060 C.3    42  LEU42       0.0001
     49  N         -9.3030   38.4520   64.3040 N.3    92  ILE92      -0.1231
     50  CA        -8.4930   37.2810   64.6400 C.3    92  ILE92       0.1692
     51  C         -9.0910   35.9490   64.1410 C.2    92  ILE92       0.2592
     52  O         -8.4480   35.2740   63.3740 O.2    92  ILE92      -0.2718
     53  CB        -8.3400   37.2440   66.1640 C.3    92  ILE92       0.0266
     54  CG1       -7.6690   38.5490   66.5830 C.3    92  ILE92       0.0019
     55  CG2       -7.5560   36.0410   66.6250 C.3    92  ILE92       0.0020
     56  CD1       -7.5880   38.7460   68.1450 C.3    92  ILE92       0.0001
     57  N        -10.3250   35.6380   64.5090 N.am   93  CYS93      -0.1970
     58  CA       -10.8590   34.3090   64.1500 C.3    93  CYS93       0.1712
     59  C        -10.8810   34.0530   62.6920 C.2    93  CYS93       0.2296
     60  O        -10.3500   33.0490   62.1940 O.2    93  CYS93      -0.2864
     61  CB       -12.2370   34.0730   64.6800 C.3    93  CYS93       0.0983
     62  SG       -12.3580   33.8940   66.4050 S.3    93  CYS93      -0.0798
     63  N         -7.3920   33.4600   61.1640 N.3    96  VAL96      -0.1231
     64  CA        -6.7690   32.1790   61.4110 C.3    96  VAL96       0.1692
     65  C         -7.3580   31.2020   60.3980 C.2    96  VAL96       0.2591
     66  O         -6.6150   30.4640   59.7850 O.2    96  VAL96      -0.2718
     67  CB        -6.9210   31.7380   62.9170 C.3    96  VAL96       0.0266
     68  CG1       -6.4970   30.2490   63.1130 C.3    96  VAL96       0.0020
     69  CG2       -5.9750   32.5780   63.7560 C.3    96  VAL96       0.0020
     70  N         -8.6690   31.2510   60.1940 N.am   97  ALA97      -0.1980
     71  CA        -9.3300   30.3970   59.1930 C.3    97  ALA97       0.1597
     72  C         -8.7590   30.6090   57.8180 C.2    97  ALA97       0.2287
     73  O         -8.5580   29.6710   57.0350 O.2    97  ALA97      -0.2864
     74  CB       -10.7760   30.6750   59.1590 C.3    97  ALA97       0.0319
@<TRIPOS>BOND
     1    73    72    2
     2    72    71    1
     3    74    71    1
     4    71    70    1
     5    66    65    2
     6    70    65   am
     7    65    64    1
     8    63    64    1
     9    64    67    1
    10    60    59    2
    11    59    58    1
    12    67    68    1
    13    67    69    1
    14    52    51    2
    15    25    24    1
    16    31    30    1
    17    31    32    1
    18    51    57   am
    19    51    50    1
    20    58    57    1
    21    58    61    1
    22    49    50    1
    23    22    24   ar
    24    22    20   ar
    25    24    23   ar
    26    30    27    1
    27    50    53    1
    28    61    62    1
    29    29    28    2
    30    20    19   ar
    31    32    26    1
    32    23    21   ar
    33    17    16    2
    34    28    27    1
    35    27    26    1
    36    53    54    1
    37    53    55    1
    38    19    21   ar
    39    19    18    1
    40    12    11    2
    41    16    15    1
    42    54    56    1
    43    15    18    1
    44    15    14    1
    45    11    14   am
    46    11    10    1
    47    13    10    1
    48    10     9    1
    49    39    38    1
    50     4     3    2
    51    47    46    1
    52    38    37    1
    53    38    40    1
    54    37    34    1
    55     3     2    1
    56     8     6    1
    57     2     5    1
    58     2     1    1
    59     5     6    1
    60    35    34    1
    61    35    36    2
    62    34    33    1
    63    46    48    1
    64    46    45    1
    65     7     6    1
    66    45    42    1
    67    42    41    1
    68    42    43    1
    69    43    44    2
