@<TRIPOS>MOLECULE
tmp/1yqdB01.pdb
 98 91 0 0 0
SMALL
GASTEIGER

@<TRIPOS>ATOM
      1  N         49.8840   90.5790   -3.7510 N.3    47  CYS47      -0.1235
      2  CA        50.0860   91.4860   -2.6320 C.3    47  CYS47       0.1677
      3  C         48.7370   92.0610   -2.2150 C.2    47  CYS47       0.2270
      4  O         47.8460   92.2070   -3.0470 O.2    47  CYS47      -0.2867
      5  CB        51.0320   92.6160   -3.0510 C.3    47  CYS47       0.0956
      6  SG        51.4040   93.7990   -1.7420 S.3    47  CYS47      -0.0801
      7  N         48.1790   94.8830   -1.7040 N.3    49  SER49      -0.1217
      8  CA        48.0390   96.1360   -2.4450 C.3    49  SER49       0.1889
      9  C         47.2150   95.8770   -3.6990 C.2    49  SER49       0.2288
     10  O         46.4780   96.7500   -4.1560 O.2    49  SER49      -0.2866
     11  CB        49.3990   96.6880   -2.8590 C.3    49  SER49       0.2089
     12  OG        50.1080   97.1610   -1.7340 O.3    49  SER49      -0.2183
     13  N         42.0510  103.0390   -2.0300 N.3    58  TRP58      -0.1241
     14  CA        42.7760  104.2970   -1.9010 C.3    58  TRP58       0.1605
     15  C         42.2490  105.4330   -2.7710 C.2    58  TRP58       0.2264
     16  O         42.5970  106.5940   -2.5510 O.2    58  TRP58      -0.2867
     17  CB        44.2570  104.0730   -2.2040 C.3    58  TRP58       0.0550
     18  CG        44.8910  103.0070   -1.3590 C.ar   58  TRP58       0.0003
     19  CD1       44.7390  102.8240   -0.0150 C.ar   58  TRP58       0.0946
     20  CD2       45.8420  102.0270   -1.7920 C.ar   58  TRP58       0.0152
     21  NE1       45.5400  101.7940    0.4190 N.ar   58  TRP58      -0.2442
     22  CE2       46.2290  101.2880   -0.6520 C.ar   58  TRP58       0.0810
     23  CE3       46.4070  101.7040   -3.0310 C.ar   58  TRP58       0.0012
     24  CZ2       47.1590  100.2460   -0.7150 C.ar   58  TRP58       0.0191
     25  CZ3       47.3330  100.6650   -3.0930 C.ar   58  TRP58       0.0001
     26  CH2       47.6990   99.9510   -1.9400 C.ar   58  TRP58       0.0015
     27  N         52.7450   92.9600   -8.8440 N.3    69  HIS69      -0.1241
     28  CA        54.0630   93.5790   -8.8430 C.3    69  HIS69       0.1621
     29  C         55.1080   92.8120   -8.0320 C.2    69  HIS69       0.2264
     30  O         55.9970   93.3920   -7.4040 O.2    69  HIS69      -0.2867
     31  CB        53.9820   95.0580   -8.4200 C.3    69  HIS69       0.0745
     32  CG        53.3470   95.2950   -7.0870 C.ar   69  HIS69       0.0817
     33  ND1       52.8620   96.5310   -6.7140 N.ar   69  HIS69      -0.2268
     34  CD2       53.1460   94.4760   -6.0280 C.ar   69  HIS69       0.1154
     35  CE1       52.3880   96.4630   -5.4820 C.ar   69  HIS69       0.1986
     36  NE2       52.5480   95.2270   -5.0440 N.ar   69  HIS69      -0.2212
     37  N         57.6140   96.7480   -7.5140 N.3    95  CYS95      -0.1235
     38  CA        56.6120   97.8080   -7.5950 C.3    95  CYS95       0.1677
     39  C         56.9380   98.9680   -8.5250 C.2    95  CYS95       0.2270
     40  O         56.0590   99.7590   -8.8500 O.2    95  CYS95      -0.2867
     41  CB        56.3480   98.3790   -6.2010 C.3    95  CYS95       0.0956
     42  SG        55.6460   97.1920   -5.0460 S.3    95  CYS95      -0.0801
     43  N         54.8580  103.5230  -10.9290 N.3   119  LEU119     -0.1245
     44  CA        54.4560  102.2240  -10.4040 C.3   119  LEU119      0.1561
     45  C         54.2510  101.1970  -11.5100 C.2   119  LEU119      0.2260
     46  O         53.8400  101.5260  -12.6190 O.2   119  LEU119     -0.2867
     47  CB        53.1770  102.3650   -9.5700 C.3   119  LEU119      0.0270
     48  CG        53.3470  103.1530   -8.2670 C.3   119  LEU119      0.0019
     49  CD1       51.9920  103.5110   -7.6740 C.3   119  LEU119      0.0001
     50  CD2       54.1690  102.3240   -7.2920 C.3   119  LEU119      0.0001
     51  N         52.0030   99.1460  -11.9690 N.3   121  TYR121     -0.1241
     52  CA        50.6500   99.1450  -12.5110 C.3   121  TYR121      0.1605
     53  C         49.8420  100.3230  -11.9890 C.2   121  TYR121      0.2264
     54  O         50.1070  100.8430  -10.8990 O.2   121  TYR121     -0.2867
     55  CB        49.9260   97.8140  -12.2350 C.3   121  TYR121      0.0534
     56  CG        49.6400   97.4880  -10.7880 C.ar  121  TYR121     -0.0201
     57  CD1       48.6210   98.1360  -10.0880 C.ar  121  TYR121     -0.0009
     58  CD2       50.3650   96.4990  -10.1260 C.ar  121  TYR121     -0.0009
     59  CE1       48.3310   97.7990   -8.7640 C.ar  121  TYR121      0.0417
     60  CE2       50.0840   96.1580   -8.8080 C.ar  121  TYR121      0.0417
     61  CZ        49.0670   96.8100   -8.1340 C.ar  121  TYR121      0.1957
     62  OH        48.7970   96.4620   -6.8320 O.3   121  TYR121     -0.2866
     63  N         58.3020   92.6480   -3.4480 N.3   163  CYS163     -0.1235
     64  CA        57.5580   93.7460   -2.8430 C.3   163  CYS163      0.1677
     65  C         57.5490   93.5530   -1.3330 C.2   163  CYS163      0.2270
     66  O         58.1000   94.3700   -0.5980 O.2   163  CYS163     -0.2867
     67  CB        56.1180   93.8310   -3.3370 C.3   163  CYS163      0.0956
     68  SG        55.2240   95.1730   -2.4900 S.3   163  CYS163     -0.0801
     69  N         54.2780  100.3380    7.5000 N.3   274  VAL274     -0.1245
     70  CA        54.4350   99.9620    6.0990 C.3   274  VAL274      0.1561
     71  C         53.0730   99.5200    5.5680 C.2   274  VAL274      0.2260
     72  O         52.8560   99.4640    4.3580 O.2   274  VAL274     -0.2867
     73  CB        55.4820   98.8310    5.8730 C.3   274  VAL274      0.0252
     74  CG1       56.8670   99.3260    6.2710 C.3   274  VAL274      0.0019
     75  CG2       55.1030   97.5760    6.6450 C.3   274  VAL274      0.0019
     76  N         49.1690   99.8700    4.6090 N.3   276  ALA276     -0.1245
     77  CA        48.5010  101.0240    4.0130 C.3   276  ALA276      0.1562
     78  C         46.9880  101.1060    4.1920 C.2   276  ALA276      0.2260
     79  O         46.2320  101.0130    3.2230 O.2   276  ALA276     -0.2867
     80  CB        48.8470  101.1020    2.5250 C.3   276  ALA276      0.0290
     81  N         57.5270  103.9060    5.5570 N.3   298  SER298     -0.1202
     82  CA        58.5250  103.4410    4.6050 C.3   298  SER298      0.2020
     83  C         57.7940  102.7870    3.4460 C.2   298  SER298      0.2619
     84  O         56.7800  102.1080    3.6400 O.2   298  SER298     -0.2717
     85  CB        59.4860  102.4420    5.2590 C.3   298  SER298      0.2103
     86  OG        60.5440  102.1160    4.3730 O.3   298  SER298     -0.2182
     87  N         58.2990  103.0180    2.2400 N.am  299  GLY299     -0.1942
     88  CA        57.6850  102.4500    1.0580 C.3   299  GLY299      0.2014
     89  C         58.6930  101.6600    0.2550 C.2   299  GLY299      0.2638
     90  O         59.7450  102.1840   -0.1110 O.2   299  GLY299     -0.2714
     91  N         58.3580  100.4010   -0.0210 N.am  300  ILE300     -0.1977
     92  CA        59.2140   99.4920   -0.7740 C.3   300  ILE300      0.1596
     93  C         60.6960   99.8050   -0.5840 C.2   300  ILE300      0.2287
     94  O         61.1760   99.8550    0.5450 O.2   300  ILE300     -0.2864
     95  CB        58.8430   99.5000   -2.2820 C.3   300  ILE300      0.0276
     96  CG1       58.8440  100.9290   -2.8310 C.3   300  ILE300      0.0022
     97  CG2       57.4640   98.8670   -2.4650 C.3   300  ILE300      0.0022
     98  CD1       58.5470  101.0130   -4.3190 C.3   300  ILE300      0.0001
@<TRIPOS>BOND
     1    46    45    2
     2    52    55    1
     3    52    53    1
     4    52    51    1
     5    55    56    1
     6    53    54    2
     7    45    44    1
     8    43    44    1
     9    56    58   ar
    10    56    57   ar
    11    44    47    1
    12    58    60   ar
    13    57    59   ar
    14    47    48    1
    15    40    39    2
    16    27    28    1
    17    28    31    1
    18    28    29    1
    19    60    61   ar
    20    59    61   ar
    21    39    38    1
    22    31    32    1
    23    48    49    1
    24    48    50    1
    25    61    62    1
    26    29    30    2
    27    38    37    1
    28    38    41    1
    29    32    33   ar
    30    32    34   ar
    31    33    35   ar
    32    41    42    1
    33    34    36   ar
    34    35    36   ar
    35    98    96    1
    36    10     9    2
    37     1     2    1
    38     9     8    1
    39    63    64    1
    40    67    64    1
    41    67    68    1
    42    25    23   ar
    43    25    26   ar
    44     5     2    1
    45     5     6    1
    46     4     3    2
    47    23    20   ar
    48    11     8    1
    49    11    12    1
    50    64    65    1
    51    96    95    1
    52    15    16    2
    53    15    14    1
    54     2     3    1
    55    97    95    1
    56     8     7    1
    57    95    92    1
    58    17    14    1
    59    17    18    1
    60    13    14    1
    61    26    24   ar
    62    20    18   ar
    63    20    22   ar
    64    18    19   ar
    65    65    66    2
    66    92    93    1
    67    92    91    1
    68    24    22   ar
    69    22    21   ar
    70    93    94    2
    71    90    89    2
    72    91    89   am
    73    19    21   ar
    74    89    88    1
    75    88    87    1
    76    87    83   am
    77    80    77    1
    78    79    78    2
    79    83    84    2
    80    83    82    1
    81    77    78    1
    82    77    76    1
    83    72    71    2
    84    86    85    1
    85    82    85    1
    86    82    81    1
    87    71    70    1
    88    73    70    1
    89    73    74    1
    90    73    75    1
    91    70    69    1
