@<TRIPOS>MOLECULE
tmp/1yqeA00.pdb
 130 126 0 0 0
SMALL
GASTEIGER

@<TRIPOS>ATOM
      1  N         15.5610   29.7410   31.8410 N.3    14  ASP14      -0.1239
      2  CA        15.5470   30.8880   30.9330 C.3    14  ASP14       0.1674
      3  C         14.6690   32.0050   31.4900 C.2    14  ASP14       0.2266
      4  O         13.4440   31.8860   31.5200 O.2    14  ASP14      -0.2867
      5  CB        15.0230   30.4710   29.5520 C.3    14  ASP14       0.1410
      6  CG        15.1830   31.5700   28.5020 C.2    14  ASP14       0.3668
      7  OD1       14.7180   32.7110   28.7310 O.co2  14  ASP14      -0.2456
      8  OD2       15.7740   31.2860   27.4370 O.co2  14  ASP14      -0.2456
      9  N         18.0840   22.7150   27.8370 N.3    54  ARG54      -0.1245
     10  CA        18.3870   23.9310   27.1000 C.3    54  ARG54       0.1563
     11  C         17.6410   23.6880   25.7840 C.2    54  ARG54       0.2260
     12  O         17.8390   22.6570   25.1450 O.2    54  ARG54      -0.2867
     13  CB        19.8950   24.0190   26.8570 C.3    54  ARG54       0.0307
     14  CG        20.3360   25.1940   26.0170 C.3    54  ARG54       0.0489
     15  CD        20.1360   26.5120   26.7390 C.3    54  ARG54       0.2205
     16  NE        20.7410   27.6230   26.0090 N.pl3  54  ARG54      -0.0865
     17  CZ        22.0270   27.6850   25.6850 C.cat  54  ARG54       0.5346
     18  NH1       22.8450   26.6990   26.0250 N.pl3  54  ARG54       0.1354
     19  NH2       22.4990   28.7350   25.0270 N.pl3  54  ARG54       0.1354
     20  N         17.8620   24.7850   22.6140 N.3    56  ILE56      -0.1245
     21  CA        18.6260   24.5090   21.3960 C.3    56  ILE56       0.1561
     22  C         19.1300   23.0710   21.2950 C.2    56  ILE56       0.2260
     23  O         19.4670   22.6080   20.2110 O.2    56  ILE56      -0.2867
     24  CB        19.8310   25.4700   21.2360 C.3    56  ILE56       0.0252
     25  CG1       20.7240   25.4150   22.4760 C.3    56  ILE56       0.0019
     26  CG2       19.3300   26.8860   20.9660 C.3    56  ILE56       0.0019
     27  CD1       22.0060   26.2270   22.3340 C.3    56  ILE56       0.0001
     28  N         11.6290   31.8190   24.3870 N.3    78  SER78      -0.1202
     29  CA        12.9930   31.8740   24.8760 C.3    78  SER78       0.2020
     30  C         13.6310   33.2440   24.7390 C.2    78  SER78       0.2619
     31  O         13.0870   34.1480   24.1120 O.2    78  SER78      -0.2717
     32  CB        13.8400   30.8470   24.1140 C.3    78  SER78       0.2103
     33  OG        15.2250   31.1410   24.2150 O.3    78  SER78      -0.2182
     34  N         14.7980   33.3900   25.3450 N.am   79  ARG79      -0.1965
     35  CA        15.5300   34.6350   25.2560 C.3    79  ARG79       0.1729
     36  C         16.3600   34.5630   23.9790 C.2    79  ARG79       0.2616
     37  O         16.5330   33.4860   23.3980 O.2    79  ARG79      -0.2715
     38  CB        16.4640   34.7810   26.4580 C.3    79  ARG79       0.0348
     39  CG        17.4640   33.6440   26.5910 C.3    79  ARG79       0.0492
     40  CD        18.3710   33.8450   27.7930 C.3    79  ARG79       0.2205
     41  NE        19.1510   32.6500   28.0950 N.pl3  79  ARG79      -0.0865
     42  CZ        20.1040   32.1550   27.3150 C.cat  79  ARG79       0.5346
     43  NH1       20.4090   32.7540   26.1730 N.pl3  79  ARG79       0.1354
     44  NH2       20.7500   31.0540   27.6750 N.pl3  79  ARG79       0.1354
     45  N         16.8490   35.7140   23.5340 N.am   80  HIS80      -0.1959
     46  CA        17.7100   35.7760   22.3610 C.3    80  HIS80       0.1787
     47  C         18.9780   36.4930   22.8070 C.2    80  HIS80       0.2620
     48  O         18.9150   37.6110   23.3140 O.2    80  HIS80      -0.2715
     49  CB        17.0550   36.5540   21.2150 C.3    80  HIS80       0.0785
     50  CG        18.0020   36.8790   20.1000 C.ar   80  HIS80       0.0821
     51  ND1       18.6600   35.9080   19.3750 N.ar   80  HIS80      -0.2267
     52  CD2       18.4490   38.0680   19.6280 C.ar   80  HIS80       0.1154
     53  CE1       19.4740   36.4840   18.5090 C.ar   80  HIS80       0.1986
     54  NE2       19.3660   37.7940   18.6420 N.ar   80  HIS80      -0.2212
     55  N         20.1240   35.8450   22.6310 N.am   81  SER81      -0.1950
     56  CA        21.3900   36.4440   23.0290 C.3    81  SER81       0.1924
     57  C         22.1630   36.9250   21.8050 C.2    81  SER81       0.2314
     58  O         22.3590   36.1760   20.8530 O.2    81  SER81      -0.2863
     59  CB        22.2270   35.4260   23.8120 C.3    81  SER81       0.2116
     60  OG        23.4280   36.0110   24.2860 O.3    81  SER81      -0.2180
     61  N         11.9340   32.9300   14.5380 N.3    92  HIS92      -0.1241
     62  CA        12.7240   32.1010   13.6400 C.3    92  HIS92       0.1621
     63  C         12.4020   30.6410   13.8960 C.2    92  HIS92       0.2264
     64  O         11.8420   30.2870   14.9370 O.2    92  HIS92      -0.2867
     65  CB        14.2290   32.3200   13.8420 C.3    92  HIS92       0.0745
     66  CG        14.8130   31.5470   14.9890 C.ar   92  HIS92       0.0817
     67  ND1       14.7970   32.0080   16.2880 N.ar   92  HIS92      -0.2268
     68  CD2       15.4480   30.3490   15.0240 C.ar   92  HIS92       0.1154
     69  CE1       15.3990   31.1310   17.0730 C.ar   92  HIS92       0.1986
     70  NE2       15.8030   30.1150   16.3310 N.ar   92  HIS92      -0.2212
     71  N         25.4640   24.9250   17.5650 N.3   102  PHE102     -0.1241
     72  CA        24.6240   25.2100   18.7150 C.3   102  PHE102      0.1605
     73  C         23.3240   24.4270   18.7620 C.2   102  PHE102      0.2264
     74  O         22.2280   24.9960   18.8170 O.2   102  PHE102     -0.2867
     75  CB        24.3820   26.7190   18.7970 C.3   102  PHE102      0.0534
     76  CG        25.6530   27.5040   18.9710 C.ar  102  PHE102     -0.0203
     77  CD1       26.4330   27.3350   20.1120 C.ar  102  PHE102     -0.0042
     78  CD2       26.1160   28.3410   17.9640 C.ar  102  PHE102     -0.0042
     79  CE1       27.6670   27.9850   20.2450 C.ar  102  PHE102     -0.0003
     80  CE2       27.3470   28.9960   18.0860 C.ar  102  PHE102     -0.0003
     81  CZ        28.1220   28.8140   19.2290 C.ar  102  PHE102     -0.0000
     82  N         14.6440   36.3250   12.2200 N.3   139  GLU139     -0.1245
     83  CA        15.9930   35.7930   12.3150 C.3   139  GLU139      0.1567
     84  C         15.9620   34.6760   11.2900 C.2   139  GLU139      0.2260
     85  O         14.9370   34.0120   11.1320 O.2   139  GLU139     -0.2867
     86  CB        16.2780   35.1920   13.6880 C.3   139  GLU139      0.0388
     87  CG        16.7190   36.1680   14.7530 C.3   139  GLU139      0.1160
     88  CD        17.0670   35.4620   16.0470 C.2   139  GLU139      0.3649
     89  OE1       17.9910   34.6200   16.0300 O.co2 139  GLU139     -0.2457
     90  OE2       16.4180   35.7390   17.0800 O.co2 139  GLU139     -0.2457
     91  N         18.4220   28.9790   12.0030 N.3   142  HIS142     -0.1226
     92  CA        19.7190   28.6610   12.5870 C.3   142  HIS142      0.1752
     93  C         19.5690   28.0440   13.9710 C.2   142  HIS142      0.2596
     94  O         18.5370   28.1970   14.6250 O.2   142  HIS142     -0.2718
     95  CB        20.5840   29.9150   12.6970 C.3   142  HIS142      0.0759
     96  CG        20.0770   30.9080   13.6930 C.ar  142  HIS142      0.0818
     97  ND1       20.8370   31.3540   14.7520 N.ar  142  HIS142     -0.2268
     98  CD2       18.8790   31.5300   13.8010 C.ar  142  HIS142      0.1154
     99  CE1       20.1270   32.2060   15.4720 C.ar  142  HIS142      0.1986
    100  NE2       18.9350   32.3300   14.9160 N.ar  142  HIS142     -0.2212
    101  N         20.6230   27.3490   14.3990 N.am  143  HIS143     -0.1975
    102  CA        20.6860   26.6880   15.6950 C.3   143  HIS143      0.1656
    103  C         19.6780   25.5660   15.8880 C.2   143  HIS143      0.2291
    104  O         18.7070   25.4460   15.1400 O.2   143  HIS143     -0.2864
    105  CB        20.5350   27.7220   16.8180 C.3   143  HIS143      0.0771
    106  CG        21.7200   28.6290   16.9630 C.ar  143  HIS143      0.0820
    107  ND1       21.8030   29.5990   17.9390 N.ar  143  HIS143     -0.2267
    108  CD2       22.8750   28.7070   16.2580 C.ar  143  HIS143      0.1154
    109  CE1       22.9570   30.2340   17.8300 C.ar  143  HIS143      0.1986
    110  NE2       23.6260   29.7120   16.8190 N.ar  143  HIS143     -0.2212
    111  N         10.4570   29.7330   17.2090 N.3   154  PHE154     -0.1241
    112  CA        10.9530   30.3500   18.4290 C.3   154  PHE154      0.1605
    113  C         10.5180   31.8120   18.4770 C.2   154  PHE154      0.2264
    114  O         10.7030   32.5570   17.5120 O.2   154  PHE154     -0.2867
    115  CB        12.4840   30.2860   18.4930 C.3   154  PHE154      0.0534
    116  CG        13.0160   28.9720   18.9880 C.ar  154  PHE154     -0.0203
    117  CD1       12.8800   27.8170   18.2250 C.ar  154  PHE154     -0.0042
    118  CD2       13.6540   28.8910   20.2200 C.ar  154  PHE154     -0.0042
    119  CE1       13.3780   26.5960   18.6880 C.ar  154  PHE154     -0.0003
    120  CE2       14.1520   27.6820   20.6870 C.ar  154  PHE154     -0.0003
    121  CZ        14.0130   26.5310   19.9190 C.ar  154  PHE154     -0.0000
    122  N         11.1910   35.0350   20.6790 N.3   156  GLU156     -0.1245
    123  CA        12.1340   35.5040   21.6800 C.3   156  GLU156      0.1567
    124  C         12.1870   37.0000   21.9590 C.2   156  GLU156      0.2260
    125  O         11.5760   37.8120   21.2630 O.2   156  GLU156     -0.2867
    126  CB        13.5360   35.0300   21.2800 C.3   156  GLU156      0.0388
    127  CG        13.5570   33.6110   20.7240 C.3   156  GLU156      0.1160
    128  CD        14.9250   33.1750   20.2280 C.2   156  GLU156      0.3649
    129  OE1       15.7120   34.0370   19.7740 O.co2 156  GLU156     -0.2457
    130  OE2       15.2080   31.9630   20.2810 O.co2 156  GLU156     -0.2457
@<TRIPOS>BOND
     1    85    84    2
     2    84    83    1
     3    91    92    1
     4    82    83    1
     5    83    86    1
     6    92    95    1
     7    92    93    1
     8    95    96    1
     9    62    65    1
    10    62    63    1
    11    62    61    1
    12    86    87    1
    13    96    98   ar
    14    96    97   ar
    15    98   100   ar
    16    65    66    1
    17    63    64    2
    18    93   101   am
    19    93    94    2
    20   101   102    1
    21    97    99   ar
    22    87    88    1
    23   100    99   ar
    24    66    68   ar
    25    66    67   ar
    26    68    70   ar
    27   104   103    2
    28   102   103    1
    29   102   105    1
    30    89    88   ar
    31    88    90   ar
    32   108   110   ar
    33   108   106   ar
    34    67    69   ar
    35    70    69   ar
    36   105   106    1
    37   110   109   ar
    38   106   107   ar
    39   111   112    1
    40   114   113    2
    41    71    72    1
    42   109   107   ar
    43    78    80   ar
    44    78    76   ar
    45    80    81   ar
    46   117   119   ar
    47   117   116   ar
    48   112   113    1
    49   112   115    1
    50   115   116    1
    51    53    54   ar
    52    53    51   ar
    53    54    52   ar
    54   119   121   ar
    55    72    73    1
    56    72    75    1
    57    73    74    2
    58    75    76    1
    59    76    77   ar
    60   116   118   ar
    61    81    79   ar
    62    51    50   ar
    63    52    50   ar
    64   129   128   ar
    65   121   120   ar
    66    50    49    1
    67    77    79   ar
    68    23    22    2
    69   118   120   ar
    70   128   130   ar
    71   128   127    1
    72   122   123    1
    73   127   126    1
    74    58    57    2
    75    26    24    1
    76    49    46    1
    77    24    21    1
    78    24    25    1
    79   125   124    2
    80   126   123    1
    81    22    21    1
    82    21    20    1
    83   123   124    1
    84    57    56    1
    85    27    25    1
    86    46    47    1
    87    46    45    1
    88    55    47   am
    89    55    56    1
    90    47    48    2
    91    56    59    1
    92    37    36    2
    93    45    36   am
    94    59    60    1
    95    36    35    1
    96    31    30    2
    97    32    33    1
    98    32    29    1
    99    28    29    1
   100    30    29    1
   101    30    34   am
   102    19    17    1
   103    12    11    2
   104    35    34    1
   105    35    38    1
   106    17    16    2
   107    17    18    1
   108    11    10    1
   109    16    15    1
   110    14    15    1
   111    14    13    1
   112    43    42    1
   113    38    39    1
   114    39    40    1
   115    13    10    1
   116    10     9    1
   117    42    44    1
   118    42    41    2
   119     8     6   ar
   120    40    41    1
   121     6     7   ar
   122     6     5    1
   123     5     2    1
   124     2     3    1
   125     2     1    1
   126     3     4    2
