@<TRIPOS>MOLECULE
tmp/1yqjA00.pdb
 190 179 0 0 0
SMALL
GASTEIGER

@<TRIPOS>ATOM
      1  N         23.9140   10.0650   41.3540 N.3    34  VAL34      -0.1245
      2  CA        25.0610    9.9890   40.4690 C.3    34  VAL34       0.1561
      3  C         25.3420   11.3370   39.8120 C.2    34  VAL34       0.2260
      4  O         24.4810   12.2190   39.7850 O.2    34  VAL34      -0.2867
      5  CB        24.8570    8.9270   39.3820 C.3    34  VAL34       0.0252
      6  CG1       24.6650    7.5710   40.0260 C.3    34  VAL34       0.0019
      7  CG2       23.6760    9.2910   38.5160 C.3    34  VAL34       0.0019
      8  N         26.1510   17.0580   39.1840 N.3    38  ALA38      -0.1231
      9  CA        26.4780   17.5330   37.8410 C.3    38  ALA38       0.1694
     10  C         25.3960   17.2740   36.7890 C.2    38  ALA38       0.2592
     11  O         25.1780   18.1130   35.9160 O.2    38  ALA38      -0.2718
     12  CB        27.7980   16.9320   37.3810 C.3    38  ALA38       0.0304
     13  N         24.7370   16.1170   36.8460 N.am   39  TYR39      -0.1976
     14  CA        23.6740   15.8170   35.8830 C.3    39  TYR39       0.1639
     15  C         22.4040   16.4750   36.4030 C.2    39  TYR39       0.2290
     16  O         21.3660   16.4860   35.7310 O.2    39  TYR39      -0.2864
     17  CB        23.4220   14.3080   35.7650 C.3    39  TYR39       0.0560
     18  CG        24.6550   13.4410   35.6800 C.ar   39  TYR39      -0.0198
     19  CD1       25.8580   13.9460   35.2010 C.ar   39  TYR39      -0.0009
     20  CD2       24.6120   12.1050   36.0700 C.ar   39  TYR39      -0.0009
     21  CE1       26.9870   13.1420   35.1100 C.ar   39  TYR39       0.0417
     22  CE2       25.7350   11.2920   35.9830 C.ar   39  TYR39       0.0417
     23  CZ        26.9190   11.8180   35.5030 C.ar   39  TYR39       0.1957
     24  OH        28.0400   11.0240   35.4240 O.3    39  TYR39      -0.2866
     25  N         19.8790   13.5670   39.7600 N.3    42  VAL42      -0.1245
     26  CA        19.7980   12.2870   39.0810 C.3    42  VAL42       0.1561
     27  C         20.2100   11.1330   39.9870 C.2    42  VAL42       0.2260
     28  O         21.2180   11.2000   40.6960 O.2    42  VAL42      -0.2867
     29  CB        20.6930   12.2880   37.8220 C.3    42  VAL42       0.0252
     30  CG1       20.4850   11.0120   37.0170 C.3    42  VAL42       0.0019
     31  CG2       20.3720   13.5030   36.9750 C.3    42  VAL42       0.0019
     32  N         18.2490    5.9710   34.5460 N.3    55  ALA55      -0.1245
     33  CA        18.6160    7.2560   35.1160 C.3    55  ALA55       0.1562
     34  C         17.3090    7.9850   35.4020 C.2    55  ALA55       0.2260
     35  O         16.5230    8.2420   34.4920 O.2    55  ALA55      -0.2867
     36  CB        19.4650    8.0570   34.1290 C.3    55  ALA55       0.0290
     37  N         15.6560   11.4080   36.7820 N.3    57  LYS57      -0.1245
     38  CA        15.9220   12.8080   37.0920 C.3    57  LYS57       0.1561
     39  C         14.7030   13.4790   37.7080 C.2    57  LYS57       0.2260
     40  O         13.5850   13.3220   37.2240 O.2    57  LYS57      -0.2867
     41  CB        16.3170   13.5820   35.8300 C.3    57  LYS57       0.0271
     42  CG        16.1500   15.0920   35.9630 C.3    57  LYS57       0.0035
     43  CD        17.2730   15.8470   35.2860 C.3    57  LYS57       0.0206
     44  CE        17.0590   15.9160   33.7860 C.3    57  LYS57       0.1093
     45  NZ        18.3650   15.9990   33.0630 N.3    57  LYS57      -0.1314
     46  N         10.9820   20.9140   27.5980 N.3    75  GLU75      -0.1245
     47  CA        11.8150   19.7340   27.7530 C.3    75  GLU75       0.1567
     48  C         10.9690   18.4750   27.6610 C.2    75  GLU75       0.2260
     49  O         11.3140   17.5390   26.9410 O.2    75  GLU75      -0.2867
     50  CB        12.5440   19.7640   29.0980 C.3    75  GLU75       0.0388
     51  CG        13.5050   18.5950   29.2910 C.3    75  GLU75       0.1160
     52  CD        14.3960   18.7540   30.5140 C.2    75  GLU75       0.3649
     53  OE1       15.2800   17.8890   30.7310 O.co2  75  GLU75      -0.2457
     54  OE2       14.2110   19.7450   31.2580 O.co2  75  GLU75      -0.2457
     55  N         11.4690   15.5140   24.9990 N.3    79  LEU79      -0.1245
     56  CA        11.8000   14.1660   25.4360 C.3    79  LEU79       0.1561
     57  C         10.7330   13.1420   25.0840 C.2    79  LEU79       0.2260
     58  O         11.0490   11.9790   24.8340 O.2    79  LEU79      -0.2867
     59  CB        12.0630   14.1540   26.9400 C.3    79  LEU79       0.0270
     60  CG        13.4040   14.7740   27.3500 C.3    79  LEU79       0.0019
     61  CD1       13.5050   14.8490   28.8560 C.3    79  LEU79       0.0001
     62  CD2       14.5410   13.9520   26.7710 C.3    79  LEU79       0.0001
     63  N         18.5630   10.5680   23.0000 N.3    88  ILE88      -0.1231
     64  CA        18.0600   10.2920   24.3420 C.3    88  ILE88       0.1692
     65  C         16.5330   10.2770   24.3050 C.2    88  ILE88       0.2593
     66  O         15.9040   11.2050   23.7890 O.2    88  ILE88      -0.2718
     67  CB        18.5250   11.3580   25.3600 C.3    88  ILE88       0.0266
     68  CG1       17.9790   11.0230   26.7490 C.3    88  ILE88       0.0019
     69  CG2       18.0380   12.7380   24.9340 C.3    88  ILE88       0.0020
     70  CD1       18.9030   11.4200   27.8820 C.3    88  ILE88       0.0001
     71  N         15.9440    9.2170   24.8480 N.am   89  GLY89      -0.1942
     72  CA        14.4970    9.1030   24.8540 C.3    89  GLY89       0.2014
     73  C         13.9200    8.9290   26.2410 C.2    89  GLY89       0.2638
     74  O         14.6470    8.8060   27.2250 O.2    89  GLY89      -0.2714
     75  N         12.5980    8.9000   26.3170 N.am   90  LEU90      -0.1977
     76  CA        11.9160    8.7550   27.5920 C.3    90  LEU90       0.1596
     77  C         11.3920    7.3390   27.8140 C.2    90  LEU90       0.2287
     78  O         10.6710    6.8000   26.9760 O.2    90  LEU90      -0.2864
     79  CB        10.7590    9.7480   27.6530 C.3    90  LEU90       0.0297
     80  CG        10.4570   10.4080   28.9920 C.3    90  LEU90       0.0022
     81  CD1       11.7210   10.9760   29.6090 C.3    90  LEU90       0.0001
     82  CD2        9.4310   11.4970   28.7620 C.3    90  LEU90       0.0001
     83  N         11.6710   12.1690   35.5440 N.3   108  LEU108     -0.1231
     84  CA        11.8820   11.6610   34.1920 C.3   108  LEU108      0.1693
     85  C         12.7650   10.4230   34.2540 C.2   108  LEU108      0.2592
     86  O         13.6260   10.3100   35.1300 O.2   108  LEU108     -0.2718
     87  CB        12.5400   12.7360   33.3280 C.3   108  LEU108      0.0284
     88  CG        11.7740   14.0470   33.1370 C.3   108  LEU108      0.0019
     89  CD1       12.7020   15.0850   32.5300 C.3   108  LEU108      0.0001
     90  CD2       10.5710   13.8150   32.2310 C.3   108  LEU108      0.0001
     91  N         12.5630    9.4960   33.3230 N.am  109  VAL109     -0.1966
     92  CA        13.3410    8.2600   33.3170 C.3   109  VAL109      0.1727
     93  C         13.8940    7.8720   31.9500 C.2   109  VAL109      0.2617
     94  O         13.1880    7.9200   30.9460 O.2   109  VAL109     -0.2715
     95  CB        12.4920    7.0740   33.8520 C.3   109  VAL109      0.0290
     96  CG1       13.3640    5.8350   34.0200 C.3   109  VAL109      0.0023
     97  CG2       11.8410    7.4530   35.1690 C.3   109  VAL109      0.0023
     98  N         15.1650    7.4780   31.9310 N.am  110  THR110     -0.1937
     99  CA        15.8330    7.0530   30.7050 C.3   110  THR110      0.2028
    100  C         16.9030    5.9920   31.0060 C.2   110  THR110      0.2642
    101  O         17.1790    5.6790   32.1680 O.2   110  THR110     -0.2714
    102  CB        16.4880    8.2610   29.9710 C.3   110  THR110      0.1808
    103  OG1       16.7500    7.9030   28.6070 O.3   110  THR110     -0.2208
    104  CG2       17.7970    8.6740   30.6470 C.3   110  THR110      0.0379
    105  N         17.4990    5.4340   29.9600 N.am  111  HIS111     -0.1959
    106  CA        18.5360    4.4250   30.1460 C.3   111  HIS111      0.1787
    107  C         19.7350    5.0630   30.8320 C.2   111  HIS111      0.2620
    108  O         20.0500    6.2290   30.5910 O.2   111  HIS111     -0.2715
    109  CB        18.9970    3.8590   28.8030 C.3   111  HIS111      0.0785
    110  CG        17.8870    3.3540   27.9370 C.ar  111  HIS111      0.0821
    111  ND1       17.2010    4.1660   27.0580 N.ar  111  HIS111     -0.2267
    112  CD2       17.3720    2.1120   27.7820 C.ar  111  HIS111      0.1154
    113  CE1       16.3130    3.4440   26.3980 C.ar  111  HIS111      0.1986
    114  NE2       16.3960    2.1950   26.8180 N.ar  111  HIS111     -0.2212
    115  N         20.4100    4.2930   31.6780 N.am  112  LEU112     -0.1963
    116  CA        21.5860    4.7840   32.3870 C.3   112  LEU112      0.1728
    117  C         22.7930    4.7420   31.4620 C.2   112  LEU112      0.2616
    118  O         23.1300    3.6940   30.9180 O.2   112  LEU112     -0.2715
    119  CB        21.8510    3.9190   33.6170 C.3   112  LEU112      0.0311
    120  CG        22.9920    4.3370   34.5430 C.3   112  LEU112      0.0022
    121  CD1       22.7350    5.7390   35.0830 C.3   112  LEU112      0.0001
    122  CD2       23.1110    3.3270   35.6870 C.3   112  LEU112      0.0001
    123  N         23.4310    5.8920   31.2720 N.am  113  MET113     -0.1963
    124  CA        24.6130    5.9840   30.4180 C.3   113  MET113      0.1736
    125  C         25.8620    6.0440   31.2960 C.2   113  MET113      0.2617
    126  O         25.8390    6.6170   32.3880 O.2   113  MET113     -0.2715
    127  CB        24.5360    7.2320   29.5330 C.3   113  MET113      0.0427
    128  CG        23.3030    7.2890   28.6330 C.3   113  MET113      0.0599
    129  SD        22.9430    5.7330   27.7920 S.3   113  MET113     -0.1393
    130  CE        24.2080    5.7360   26.4730 C.3   113  MET113      0.0692
    131  N         26.9520    5.4600   30.8120 N.am  114  GLY114     -0.1940
    132  CA        28.1770    5.4400   31.5880 C.3   114  GLY114      0.2014
    133  C         29.0990    6.6350   31.4330 C.2   114  GLY114      0.2639
    134  O         29.6080    7.1590   32.4240 O.2   114  GLY114     -0.2714
    135  N         29.3220    7.0740   30.1990 N.am  115  ALA115     -0.1963
    136  CA        30.2090    8.2020   29.9760 C.3   115  ALA115      0.1728
    137  C         29.9210    8.9390   28.6770 C.2   115  ALA115      0.2616
    138  O         29.2410    8.4160   27.7870 O.2   115  ALA115     -0.2715
    139  CB        31.6530    7.7160   29.9840 C.3   115  ALA115      0.0334
    140  N         30.4420   10.1600   28.5790 N.am  116  ASP116     -0.1971
    141  CA        30.2700   10.9680   27.3780 C.3   116  ASP116      0.1709
    142  C         31.4720   10.7550   26.4590 C.2   116  ASP116      0.2293
    143  O         32.4310   10.0640   26.8210 O.2   116  ASP116     -0.2864
    144  CB        30.1200   12.4560   27.7380 C.3   116  ASP116      0.1436
    145  CG        31.3680   13.0430   28.3970 C.2   116  ASP116      0.3671
    146  OD1       32.4090   12.3560   28.4480 O.co2 116  ASP116     -0.2456
    147  OD2       31.3060   14.2040   28.8650 O.co2 116  ASP116     -0.2456
    148  N         35.0400   11.3520   28.0350 N.3   119  ASN119     -0.1240
    149  CA        35.5700   10.2820   28.8720 C.3   119  ASN119      0.1653
    150  C         36.1280    9.1560   28.0090 C.2   119  ASN119      0.2266
    151  O         37.2020    8.6210   28.2870 O.2   119  ASN119     -0.2867
    152  CB        34.4770    9.7410   29.8030 C.3   119  ASN119      0.1155
    153  CG        33.7640   10.8480   30.5810 C.2   119  ASN119      0.2627
    154  OD1       32.5960   10.7070   30.9670 O.2   119  ASN119     -0.2716
    155  ND2       34.4650   11.9550   30.8140 N.am  119  ASN119     -0.0877
    156  N         30.5040   16.6050   25.1790 N.3   158  SER158     -0.1202
    157  CA        29.9000   16.3680   26.4850 C.3   158  SER158      0.2020
    158  C         28.3990   16.0780   26.3860 C.2   158  SER158      0.2618
    159  O         27.7730   15.6720   27.3670 O.2   158  SER158     -0.2717
    160  CB        30.1410   17.5670   27.4060 C.3   158  SER158      0.2103
    161  OG        29.4980   18.7310   26.9230 O.3   158  SER158     -0.2182
    162  N         27.8320   16.2820   25.1960 N.am  159  ASN159     -0.1974
    163  CA        26.4040   16.0470   24.9520 C.3   159  ASN159      0.1688
    164  C         26.1920   14.7740   24.1450 C.2   159  ASN159      0.2292
    165  O         25.1260   14.5430   23.5800 O.2   159  ASN159     -0.2864
    166  CB        25.7880   17.2400   24.2120 C.3   159  ASN159      0.1181
    167  CG        25.5400   18.4160   25.1320 C.2   159  ASN159      0.2629
    168  OD1       25.3670   18.2420   26.3410 O.2   159  ASN159     -0.2716
    169  ND2       25.5290   19.6190   24.5730 N.am  159  ASN159     -0.0877
    170  N         26.5860   10.7570   24.6940 N.3   161  ALA161     -0.1245
    171  CA        26.8060    9.6430   25.6060 C.3   161  ALA161      0.1562
    172  C         27.2850    8.4550   24.7780 C.2   161  ALA161      0.2260
    173  O         26.7690    8.1990   23.6900 O.2   161  ALA161     -0.2867
    174  CB        25.5100    9.2980   26.3260 C.3   161  ALA161      0.0290
    175  N         22.1740   13.8940   23.5890 N.3   171  LEU171     -0.1231
    176  CA        21.3330   14.3620   24.6820 C.3   171  LEU171      0.1693
    177  C         21.4910   15.8580   24.8990 C.2   171  LEU171      0.2592
    178  O         21.9970   16.5730   24.0320 O.2   171  LEU171     -0.2718
    179  CB        21.6680   13.6270   25.9790 C.3   171  LEU171      0.0284
    180  CG        22.8590   12.6750   25.9800 C.3   171  LEU171      0.0019
    181  CD1       23.8190   13.0630   27.1000 C.3   171  LEU171      0.0001
    182  CD2       22.3610   11.2430   26.1610 C.3   171  LEU171      0.0001
    183  N         21.0360   16.3150   26.0620 N.am  172  ASP172     -0.1974
    184  CA        21.1230   17.7140   26.4640 C.3   172  ASP172      0.1709
    185  C         20.8990   18.7070   25.3290 C.2   172  ASP172      0.2293
    186  O         21.7900   19.4940   25.0070 O.2   172  ASP172     -0.2864
    187  CB        22.4910   17.9710   27.1070 C.3   172  ASP172      0.1436
    188  CG        22.5160   19.2290   27.9610 C.2   172  ASP172      0.3671
    189  OD1       22.7320   20.3300   27.4070 O.co2 172  ASP172     -0.2456
    190  OD2       22.3240   19.1140   29.1910 O.co2 172  ASP172     -0.2456
@<TRIPOS>BOND
     1    63    64    1
     2   165   164    2
     3   175   176    1
     4   173   172    2
     5    66    65    2
     6   178   177    2
     7   164   163    1
     8   166   163    1
     9   166   167    1
    10    65    64    1
    11    65    71   am
    12    64    67    1
    13   169   167   am
    14   176   177    1
    15   176   179    1
    16   170   171    1
    17   172   171    1
    18    58    57    2
    19    71    72    1
    20    72    73    1
    21   177   183   am
    22    69    67    1
    23   163   162    1
    24    55    56    1
    25   186   185    2
    26    57    56    1
    27   167   168    2
    28   156   157    1
    29   162   158   am
    30   185   184    1
    31    67    68    1
    32    56    59    1
    33   171   174    1
    34   179   180    1
    35   180   182    1
    36   180   181    1
    37   183   184    1
    38    73    75   am
    39    73    74    2
    40    75    76    1
    41   158   157    1
    42   158   159    2
    43   113   114   ar
    44   113   111   ar
    45   142   143    2
    46   142   141    1
    47   184   187    1
    48   130   129    1
    49   157   160    1
    50    68    70    1
    51    62    60    1
    52   114   112   ar
    53   161   160    1
    54    59    60    1
    55    49    48    2
    56    78    77    2
    57   111   110   ar
    58   187   188    1
    59    60    61    1
    60   141   144    1
    61   141   140    1
    62   189   188   ar
    63    76    79    1
    64    76    77    1
    65    46    47    1
    66    79    80    1
    67    48    47    1
    68   144   145    1
    69    47    50    1
    70   112   110   ar
    71   138   137    2
    72   129   128    1
    73   110   109    1
    74   188   190   ar
    75   150   151    2
    76   150   149    1
    77   148   149    1
    78   145   146   ar
    79   145   147   ar
    80   140   137   am
    81   103   102    1
    82   128   127    1
    83   137   136    1
    84    82    80    1
    85   109   106    1
    86   149   152    1
    87    80    81    1
    88    50    51    1
    89    51    52    1
    90   127   124    1
    91   152   153    1
    92   105   106    1
    93   105   100   am
    94   102   104    1
    95   102    99    1
    96   136   139    1
    97   136   135    1
    98   106   107    1
    99   135   133   am
   100   124   123    1
   101   124   125    1
   102    52    53   ar
   103    52    54   ar
   104   153   155   am
   105   153   154    2
   106   108   107    2
   107    99   100    1
   108    99    98    1
   109   131   125   am
   110   131   132    1
   111   107   115   am
   112   118   117    2
   113    94    93    2
   114   100   101    2
   115   123   117   am
   116   125   126    2
   117   133   132    1
   118   133   134    2
   119   117   116    1
   120   115   116    1
   121    98    93   am
   122    93    92    1
   123    90    88    1
   124   116   119    1
   125    89    88    1
   126    45    44    1
   127    88    87    1
   128    92    91    1
   129    92    95    1
   130    91    85   am
   131    87    84    1
   132   119   120    1
   133    44    43    1
   134    95    96    1
   135    95    97    1
   136    36    33    1
   137    84    85    1
   138    84    83    1
   139    85    86    2
   140    35    34    2
   141   120   121    1
   142   120   122    1
   143    32    33    1
   144    21    19   ar
   145    21    23   ar
   146    33    34    1
   147    19    18   ar
   148    43    42    1
   149    24    23    1
   150    23    22   ar
   151    18    17    1
   152    18    20   ar
   153    16    15    2
   154    17    14    1
   155    41    42    1
   156    41    38    1
   157    14    15    1
   158    14    13    1
   159    11    10    2
   160    22    20   ar
   161    37    38    1
   162    10    13   am
   163    10     9    1
   164    31    29    1
   165    30    29    1
   166    38    39    1
   167    40    39    2
   168    12     9    1
   169    29    26    1
   170     9     8    1
   171     7     5    1
   172    26    25    1
   173    26    27    1
   174     5     6    1
   175     5     2    1
   176     4     3    2
   177     3     2    1
   178    27    28    2
   179     2     1    1
