@<TRIPOS>MOLECULE
tmp/1yqsA01.pdb
 125 119 0 0 0
SMALL
GASTEIGER

@<TRIPOS>ATOM
      1  N         13.5930  -19.8340   46.4450 N.3   112  ASP112     -0.1239
      2  CA        13.9630  -19.4330   45.0870 C.3   112  ASP112      0.1674
      3  C         14.6160  -20.6410   44.3680 C.2   112  ASP112      0.2266
      4  O         15.7880  -20.9480   44.6200 O.2   112  ASP112     -0.2867
      5  CB        14.8660  -18.2280   45.0540 C.3   112  ASP112      0.1410
      6  CG        14.9270  -17.6620   43.6340 C.2   112  ASP112      0.3668
      7  OD1       14.7670  -18.4140   42.6660 O.co2 112  ASP112     -0.2456
      8  OD2       15.1440  -16.4220   43.4980 O.co2 112  ASP112     -0.2456
      9  N         15.8090  -20.8590   41.5540 N.3   114  THR114     -0.1203
     10  CA        17.0110  -20.5760   40.7630 C.3   114  THR114      0.1994
     11  C         18.2820  -20.8930   41.5590 C.2   114  THR114      0.2617
     12  O         19.3190  -21.1100   40.9070 O.2   114  THR114     -0.2717
     13  CB        17.0410  -19.1570   40.2240 C.3   114  THR114      0.1784
     14  OG1       17.1140  -18.2250   41.2950 O.3   114  THR114     -0.2211
     15  CG2       15.8290  -18.8650   39.3540 C.3   114  THR114      0.0376
     16  N         18.2340  -20.9980   42.8940 N.am  115  ASN115     -0.1974
     17  CA        19.4220  -21.4200   43.6310 C.3   115  ASN115      0.1688
     18  C         19.8060  -22.8490   43.2570 C.2   115  ASN115      0.2292
     19  O         20.9910  -23.1920   43.3370 O.2   115  ASN115     -0.2864
     20  CB        19.2220  -21.3600   45.1520 C.3   115  ASN115      0.1181
     21  CG        19.1740  -19.9730   45.6910 C.2   115  ASN115      0.2629
     22  OD1       18.8540  -18.9640   44.9960 O.2   115  ASN115     -0.2716
     23  ND2       19.5450  -19.8190   46.9670 N.am  115  ASN115     -0.0877
     24  N         21.1370  -22.5680   39.1530 N.3   118  PHE118     -0.1227
     25  CA        22.3390  -21.8160   38.7870 C.3   118  PHE118      0.1736
     26  C         23.4240  -21.9350   39.8660 C.2   118  PHE118      0.2595
     27  O         24.2790  -21.0860   39.9580 O.2   118  PHE118     -0.2718
     28  CB        21.9960  -20.3750   38.4270 C.3   118  PHE118      0.0547
     29  CG        20.9130  -20.2340   37.3680 C.ar  118  PHE118     -0.0202
     30  CD1       20.9730  -20.9240   36.1720 C.ar  118  PHE118     -0.0042
     31  CD2       19.8260  -19.4390   37.5940 C.ar  118  PHE118     -0.0042
     32  CE1       19.9450  -20.8910   35.2510 C.ar  118  PHE118     -0.0003
     33  CE2       18.7830  -19.3690   36.6850 C.ar  118  PHE118     -0.0003
     34  CZ        18.8300  -20.0960   35.5160 C.ar  118  PHE118     -0.0000
     35  N         23.4280  -23.0430   40.6300 N.am  119  ALA119     -0.1980
     36  CA        24.5180  -23.3510   41.5770 C.3   119  ALA119      0.1597
     37  C         25.8720  -23.2110   40.8660 C.2   119  ALA119      0.2287
     38  O         26.8090  -22.7020   41.4410 O.2   119  ALA119     -0.2864
     39  CB        24.3300  -24.7340   42.1800 C.3   119  ALA119      0.0319
     40  N         27.2440  -21.5340   37.2860 N.3   121  THR121     -0.1218
     41  CA        26.6700  -20.5330   36.3870 C.3   121  THR121      0.1862
     42  C         26.5060  -21.0420   34.9670 C.2   121  THR121      0.2287
     43  O         25.3900  -21.0220   34.3980 O.2   121  THR121     -0.2866
     44  CB        27.5470  -19.2480   36.4080 C.3   121  THR121      0.1770
     45  OG1       27.4620  -18.7420   37.7520 O.3   121  THR121     -0.2211
     46  CG2       27.0570  -18.2180   35.4250 C.3   121  THR121      0.0375
     47  N         12.5610  -15.3530   42.8470 N.3   159  ASN159     -0.1240
     48  CA        11.9260  -15.4250   41.5460 C.3   159  ASN159      0.1653
     49  C         10.5850  -16.1150   41.6020 C.2   159  ASN159      0.2266
     50  O          9.6540  -15.7920   40.8320 O.2   159  ASN159     -0.2867
     51  CB        12.8220  -16.1060   40.5470 C.3   159  ASN159      0.1155
     52  CG        13.9600  -15.1920   40.1150 C.2   159  ASN159      0.2627
     53  OD1       13.6950  -14.2080   39.4650 O.2   159  ASN159     -0.2716
     54  ND2       15.1790  -15.4890   40.5160 N.am  159  ASN159     -0.0877
     55  N         27.9530  -14.2170   29.2330 N.3   212  LEU212     -0.1245
     56  CA        27.9450  -14.7860   30.5760 C.3   212  LEU212      0.1561
     57  C         29.3850  -15.0180   31.0140 C.2   212  LEU212      0.2260
     58  O         30.1500  -15.7320   30.3430 O.2   212  LEU212     -0.2867
     59  CB        27.1180  -16.0770   30.5550 C.3   212  LEU212      0.0270
     60  CG        26.9160  -16.7890   31.8670 C.3   212  LEU212      0.0019
     61  CD1       26.2130  -15.8910   32.8770 C.3   212  LEU212      0.0001
     62  CD2       26.1010  -18.0570   31.6170 C.3   212  LEU212      0.0001
     63  N         12.7960  -20.1100   32.4700 N.3   231  TRP231     -0.1241
     64  CA        13.0380  -20.2540   33.8970 C.3   231  TRP231      0.1605
     65  C         12.5350  -19.0330   34.6730 C.2   231  TRP231      0.2264
     66  O         12.4040  -19.1660   35.8880 O.2   231  TRP231     -0.2867
     67  CB        14.4920  -20.4960   34.1930 C.3   231  TRP231      0.0550
     68  CG        15.4350  -19.3920   33.8010 C.ar  231  TRP231      0.0003
     69  CD1       16.0850  -19.3270   32.5930 C.ar  231  TRP231      0.0946
     70  CD2       15.7910  -18.2600   34.5800 C.ar  231  TRP231      0.0152
     71  NE1       16.8400  -18.1890   32.5810 N.ar  231  TRP231     -0.2442
     72  CE2       16.7000  -17.5220   33.7780 C.ar  231  TRP231      0.0810
     73  CE3       15.4540  -17.8050   35.8570 C.ar  231  TRP231      0.0012
     74  CZ2       17.2660  -16.3410   34.2360 C.ar  231  TRP231      0.0191
     75  CZ3       16.0250  -16.6350   36.2910 C.ar  231  TRP231      0.0001
     76  CH2       16.9220  -15.9150   35.4770 C.ar  231  TRP231      0.0015
     77  N         19.0420   -8.6570   36.2960 N.3   299  THR299     -0.1203
     78  CA        20.0530   -9.5540   35.9720 C.3   299  THR299      0.1994
     79  C         19.3310  -10.6740   35.2020 C.2   299  THR299      0.2618
     80  O         18.1790  -11.0340   35.4880 O.2   299  THR299     -0.2717
     81  CB        20.8540  -10.0880   37.1920 C.3   299  THR299      0.1784
     82  OG1       20.0590  -10.8970   38.0420 O.3   299  THR299     -0.2211
     83  CG2       21.3720   -8.9550   38.0780 C.3   299  THR299      0.0376
     84  N         19.9680  -11.1840   34.2350 N.am  300  VAL300     -0.1965
     85  CA        19.6930  -12.3550   33.4240 C.3   300  VAL300      0.1727
     86  C         20.9720  -12.7050   32.7180 C.2   300  VAL300      0.2616
     87  O         21.8900  -11.8800   32.6590 O.2   300  VAL300     -0.2715
     88  CB        18.4830  -12.1050   32.4880 C.3   300  VAL300      0.0290
     89  CG1       18.7660  -10.9670   31.5170 C.3   300  VAL300      0.0023
     90  CG2       18.0610  -13.3360   31.7260 C.3   300  VAL300      0.0023
     91  N         21.1680  -13.9310   32.2480 N.am  301  GLN301     -0.1977
     92  CA        22.5030  -14.3030   31.7760 C.3   301  GLN301      0.1601
     93  C         22.9960  -13.4000   30.6420 C.2   301  GLN301      0.2287
     94  O         22.3970  -13.3040   29.5660 O.2   301  GLN301     -0.2864
     95  CB        22.5280  -15.7620   31.3000 C.3   301  GLN301      0.0394
     96  CG        22.3690  -16.7680   32.4310 C.3   301  GLN301      0.0908
     97  CD        20.9300  -17.1170   32.7750 C.2   301  GLN301      0.2608
     98  OE1       19.9550  -16.4980   32.3200 O.2   301  GLN301     -0.2717
     99  NE2       20.8360  -18.1470   33.6050 N.am  301  GLN301     -0.0878
    100  N         23.2530   -7.0060   32.6440 N.3   304  TYR304     -0.1241
    101  CA        22.9900   -6.2880   33.8750 C.3   304  TYR304      0.1605
    102  C         22.3510   -4.9370   33.5600 C.2   304  TYR304      0.2264
    103  O         22.9170   -4.1510   32.8280 O.2   304  TYR304     -0.2867
    104  CB        24.3090   -6.0460   34.5780 C.3   304  TYR304      0.0534
    105  CG        24.9410   -7.1520   35.3880 C.ar  304  TYR304     -0.0201
    106  CD1       24.2360   -8.0840   36.0750 C.ar  304  TYR304     -0.0009
    107  CD2       26.3280   -7.1810   35.5150 C.ar  304  TYR304     -0.0009
    108  CE1       24.8290   -9.0760   36.8340 C.ar  304  TYR304      0.0417
    109  CE2       26.9570   -8.1000   36.3340 C.ar  304  TYR304      0.0417
    110  CZ        26.2050   -9.0420   36.9970 C.ar  304  TYR304      0.1957
    111  OH        26.8760   -9.9110   37.8110 O.3   304  TYR304     -0.2866
    112  N         27.0870  -10.7310   32.7120 N.3   324  SER324     -0.1202
    113  CA        26.5740  -10.9910   34.0400 C.3   324  SER324      0.2020
    114  C         27.5230  -11.9690   34.7270 C.2   324  SER324      0.2618
    115  O         28.5320  -12.3730   34.1660 O.2   324  SER324     -0.2717
    116  CB        25.1460  -11.5310   34.0200 C.3   324  SER324      0.2103
    117  OG        25.1380  -12.8540   33.5240 O.3   324  SER324     -0.2182
    118  N         27.1960  -12.3240   35.9540 N.am  325  ASN325     -0.1974
    119  CA        28.0800  -13.1140   36.8330 C.3   325  ASN325      0.1688
    120  C         29.4320  -12.4340   36.9850 C.2   325  ASN325      0.2292
    121  O         30.4740  -13.0910   36.9160 O.2   325  ASN325     -0.2864
    122  CB        28.2330  -14.5510   36.3990 C.3   325  ASN325      0.1181
    123  CG        28.8870  -15.4140   37.4430 C.2   325  ASN325      0.2629
    124  OD1       28.6020  -15.2690   38.6300 O.2   325  ASN325     -0.2716
    125  ND2       29.7560  -16.3220   37.0320 N.am  325  ASN325     -0.0877
@<TRIPOS>BOND
     1    55    56    1
     2    94    93    2
     3    58    57    2
     4    59    56    1
     5    59    60    1
     6    56    57    1
     7    93    92    1
     8    95    92    1
     9    95    96    1
    10    89    88    1
    11    62    60    1
    12    90    88    1
    13    92    91    1
    14    60    61    1
    15    91    86   am
    16    98    97    2
    17    96    97    1
    18    63    64    1
    19    88    85    1
    20    71    69   ar
    21    71    72   ar
    22    69    68   ar
    23   100   101    1
    24    87    86    2
    25   112   113    1
    26    86    85    1
    27    97    99   am
    28   103   102    2
    29    85    84    1
    30   117   116    1
    31   102   101    1
    32    72    74   ar
    33    72    70   ar
    34    68    67    1
    35    68    70   ar
    36   101   104    1
    37    64    67    1
    38    64    65    1
    39   116   113    1
    40   113   114    1
    41   115   114    2
    42    84    79   am
    43    74    76   ar
    44    43    42    2
    45   104   105    1
    46    70    73   ar
    47    65    66    2
    48   114   118   am
    49    42    41    1
    50    79    80    2
    51    79    78    1
    52    32    34   ar
    53    32    30   ar
    54   105   107   ar
    55   105   106   ar
    56    46    44    1
    57    76    75   ar
    58   107   109   ar
    59    34    33   ar
    60    73    75   ar
    61   118   119    1
    62    78    77    1
    63    78    81    1
    64   106   108   ar
    65    30    29   ar
    66   109   110   ar
    67    41    44    1
    68    41    40    1
    69   122   119    1
    70   122   123    1
    71    44    45    1
    72    33    31   ar
    73   119   120    1
    74   108   110   ar
    75   121   120    2
    76   110   111    1
    77   125   123   am
    78    81    82    1
    79    81    83    1
    80    29    31   ar
    81    29    28    1
    82   123   124    2
    83    28    25    1
    84    25    24    1
    85    25    26    1
    86    15    13    1
    87    53    52    2
    88    26    27    2
    89    26    35   am
    90    52    54   am
    91    52    51    1
    92    13    10    1
    93    13    14    1
    94    51    48    1
    95    35    36    1
    96    10     9    1
    97    10    11    1
    98    50    49    2
    99    37    38    2
   100    37    36    1
   101    12    11    2
   102    48    49    1
   103    48    47    1
   104    11    16   am
   105    36    39    1
   106     7     6   ar
   107    16    17    1
   108    18    19    2
   109    18    17    1
   110     8     6   ar
   111    17    20    1
   112     6     5    1
   113     3     4    2
   114     3     2    1
   115    22    21    2
   116     5     2    1
   117     2     1    1
   118    20    21    1
   119    21    23   am
