@<TRIPOS>MOLECULE
tmp/1yqsA00.pdb
 113 107 0 0 0
SMALL
GASTEIGER

@<TRIPOS>ATOM
      1  N         15.2180   -9.1340   35.7020 N.3    60  SER60      -0.1217
      2  CA        14.2670   -8.9190   36.7910 C.3    60  SER60       0.1889
      3  C         13.5930   -7.5640   36.7730 C.2    60  SER60       0.2288
      4  O         12.6390   -7.3700   37.5530 O.2    60  SER60      -0.2866
      5  CB        15.0330   -9.2170   38.0960 C.3    60  SER60       0.2089
      6  OG        16.3460   -8.6080   38.1360 O.3    60  SER60      -0.2183
      7  N         14.5070  -12.1440   48.5720 N.3   157  TYR157     -0.1241
      8  CA        14.1910  -12.0730   47.1630 C.3   157  TYR157      0.1605
      9  C         13.9720  -13.4530   46.5950 C.2   157  TYR157      0.2264
     10  O         14.7720  -14.3630   46.8220 O.2   157  TYR157     -0.2867
     11  CB        15.3180  -11.4060   46.4170 C.3   157  TYR157      0.0534
     12  CG        14.9980  -11.0280   44.9660 C.ar  157  TYR157     -0.0201
     13  CD1       14.5230   -9.7600   44.7140 C.ar  157  TYR157     -0.0009
     14  CD2       15.1640  -11.9130   43.9350 C.ar  157  TYR157     -0.0009
     15  CE1       14.2060   -9.3600   43.4360 C.ar  157  TYR157      0.0417
     16  CE2       14.9020  -11.4930   42.6380 C.ar  157  TYR157      0.0417
     17  CZ        14.4320  -10.2470   42.4040 C.ar  157  TYR157      0.1957
     18  OH        14.1880   -9.8060   41.1010 O.3   157  TYR157     -0.2866
     19  N         12.5610  -15.3530   42.8470 N.3   159  ASN159     -0.1240
     20  CA        11.9260  -15.4250   41.5460 C.3   159  ASN159      0.1653
     21  C         10.5850  -16.1150   41.6020 C.2   159  ASN159      0.2266
     22  O          9.6540  -15.7920   40.8320 O.2   159  ASN159     -0.2867
     23  CB        12.8220  -16.1060   40.5470 C.3   159  ASN159      0.1155
     24  CG        13.9600  -15.1920   40.1150 C.2   159  ASN159      0.2627
     25  OD1       13.6950  -14.2080   39.4650 O.2   159  ASN159     -0.2716
     26  ND2       15.1790  -15.4890   40.5160 N.am  159  ASN159     -0.0877
     27  N         18.1940    0.9470   50.9540 N.3   276  GLN276     -0.1196
     28  CA        17.3590    0.3170   49.9530 C.3   276  GLN276      0.1782
     29  C         16.0920   -0.2720   50.5420 C.2   276  GLN276      0.2306
     30  O         16.0800   -0.8010   51.6760 O.2   276  GLN276     -0.2863
     31  CB        18.0630   -0.8430   49.2560 C.2   276  GLN276      0.0051
     32  CG        19.1870   -0.5480   48.3590 C.2   276  GLN276      0.0584
     33  CD        19.6180   -1.6680   47.4220 C.2   276  GLN276      0.2840
     34  OE1       18.7850   -2.3790   46.8730 O.2   276  GLN276     -0.2667
     35  NE2       20.9510   -1.7900   47.2670 N.am  276  GLN276     -0.0837
     36  N         11.7890   -1.1750   43.4860 N.3   283  ARG283     -0.1245
     37  CA        12.9220   -0.9370   44.3890 C.3   283  ARG283      0.1563
     38  C         13.1140    0.5420   44.6320 C.2   283  ARG283      0.2260
     39  O         12.9160    1.3410   43.7150 O.2   283  ARG283     -0.2867
     40  CB        14.2000   -1.5390   43.8190 C.3   283  ARG283      0.0307
     41  CG        14.1120   -3.0120   43.4210 C.3   283  ARG283      0.0489
     42  CD        15.5650   -3.3870   43.0890 C.3   283  ARG283      0.2205
     43  NE        15.8900   -4.7650   43.2860 N.pl3 283  ARG283     -0.0865
     44  CZ        16.1390   -5.7490   44.0020 C.cat 283  ARG283      0.5346
     45  NH1       16.2130   -5.7560   45.3340 N.pl3 283  ARG283      0.1354
     46  NH2       16.3740   -6.8830   43.3700 N.pl3 283  ARG283      0.1354
     47  N         16.3190    3.0330   45.8970 N.3   285  ARG285     -0.1245
     48  CA        17.7360    3.2040   46.2270 C.3   285  ARG285      0.1563
     49  C         17.9800    4.6110   46.7060 C.2   285  ARG285      0.2260
     50  O         17.5410    5.5760   46.0530 O.2   285  ARG285     -0.2867
     51  CB        18.6310    2.8660   45.0200 C.3   285  ARG285      0.0307
     52  CG        18.7560    1.3910   44.6770 C.3   285  ARG285      0.0489
     53  CD        19.5050    1.1290   43.3710 C.3   285  ARG285      0.2205
     54  NE        20.9450    1.2430   43.6090 N.pl3 285  ARG285     -0.0865
     55  CZ        21.7460    0.2580   43.9730 C.cat 285  ARG285      0.5346
     56  NH1       21.3280   -0.9790   44.1320 N.pl3 285  ARG285      0.1354
     57  NH2       23.0330    0.5340   44.1750 N.pl3 285  ARG285      0.1354
     58  N         13.9910   -0.6210   39.1230 N.3   296  HIS296     -0.1226
     59  CA        14.3510   -2.0270   39.3900 C.3   296  HIS296      0.1752
     60  C         15.6970   -2.2810   38.7050 C.2   296  HIS296      0.2597
     61  O         16.0480   -1.6560   37.7050 O.2   296  HIS296     -0.2718
     62  CB        13.2770   -3.0050   38.8980 C.3   296  HIS296      0.0759
     63  CG        13.0680   -4.2210   39.7380 C.ar  296  HIS296      0.0818
     64  ND1       13.9270   -5.3080   39.7600 N.ar  296  HIS296     -0.2268
     65  CD2       12.0560   -4.5560   40.5800 C.ar  296  HIS296      0.1154
     66  CE1       13.4220   -6.1950   40.6280 C.ar  296  HIS296      0.1986
     67  NE2       12.3050   -5.7880   41.1280 N.ar  296  HIS296     -0.2212
     68  N         16.4290   -3.2110   39.2680 N.am  297  THR297     -0.1939
     69  CA        17.5820   -3.8210   38.6330 C.3   297  THR297      0.2028
     70  C         17.1730   -5.0380   37.8280 C.2   297  THR297      0.2643
     71  O         16.0990   -5.6010   38.0210 O.2   297  THR297     -0.2714
     72  CB        18.5980   -4.2310   39.7030 C.3   297  THR297      0.1808
     73  OG1       17.8940   -4.9460   40.7220 O.3   297  THR297     -0.2208
     74  CG2       19.2840   -2.9940   40.2910 C.3   297  THR297      0.0379
     75  N         18.0360   -5.4070   36.9320 N.am  298  GLY298     -0.1939
     76  CA        17.8690   -6.6060   36.1710 C.3   298  GLY298      0.2014
     77  C         19.1580   -7.3910   36.0720 C.2   298  GLY298      0.2639
     78  O         20.2320   -6.8260   35.7850 O.2   298  GLY298     -0.2714
     79  N         19.0420   -8.6570   36.2960 N.am  299  THR299     -0.1950
     80  CA        20.0530   -9.5540   35.9720 C.3   299  THR299      0.1897
     81  C         19.3310  -10.6740   35.2020 C.2   299  THR299      0.2313
     82  O         18.1790  -11.0340   35.4880 O.2   299  THR299     -0.2863
     83  CB        20.8540  -10.0880   37.1920 C.3   299  THR299      0.1794
     84  OG1       20.0590  -10.8970   38.0420 O.3   299  THR299     -0.2208
     85  CG2       21.3720   -8.9550   38.0780 C.3   299  THR299      0.0378
     86  N         20.2520   -1.4290   35.2280 N.3   306  TYR306     -0.1241
     87  CA        19.6970   -0.5590   36.2450 C.3   306  TYR306      0.1605
     88  C         18.6980    0.3720   35.5700 C.2   306  TYR306      0.2264
     89  O         19.0700    1.0300   34.6040 O.2   306  TYR306     -0.2867
     90  CB        20.7680    0.3270   36.9250 C.3   306  TYR306      0.0534
     91  CG        21.6830   -0.4420   37.8600 C.ar  306  TYR306     -0.0201
     92  CD1       22.7320   -1.1970   37.3440 C.ar  306  TYR306     -0.0009
     93  CD2       21.4920   -0.4270   39.2410 C.ar  306  TYR306     -0.0009
     94  CE1       23.5810   -1.9290   38.1750 C.ar  306  TYR306      0.0417
     95  CE2       22.3300   -1.1460   40.0730 C.ar  306  TYR306      0.0417
     96  CZ        23.3440   -1.8840   39.5510 C.ar  306  TYR306      0.1957
     97  OH        24.1850   -2.5990   40.4140 O.3   306  TYR306     -0.2866
     98  N         28.7240   -5.3270   38.0950 N.3   330  LEU330     -0.1231
     99  CA        27.4190   -5.0230   38.6640 C.3   330  LEU330      0.1693
    100  C         27.5270   -3.8350   39.6070 C.2   330  LEU330      0.2592
    101  O         26.7110   -2.9010   39.5310 O.2   330  LEU330     -0.2718
    102  CB        26.9080   -6.2610   39.3990 C.3   330  LEU330      0.0284
    103  CG        25.4790   -6.1260   39.9850 C.3   330  LEU330      0.0019
    104  CD1       24.4320   -5.7710   38.9530 C.3   330  LEU330      0.0001
    105  CD2       25.1330   -7.4420   40.7100 C.3   330  LEU330      0.0001
    106  N         28.5320   -3.8480   40.4660 N.am  331  ASN331     -0.1974
    107  CA        28.7200   -2.7680   41.4210 C.3   331  ASN331      0.1688
    108  C         29.0850   -1.4860   40.7260 C.2   331  ASN331      0.2292
    109  O         28.5980   -0.3990   41.0660 O.2   331  ASN331     -0.2864
    110  CB        29.7830   -3.1550   42.4470 C.3   331  ASN331      0.1181
    111  CG        29.3480   -4.2010   43.4020 C.2   331  ASN331      0.2629
    112  OD1       30.2200   -4.8860   43.9860 O.2   331  ASN331     -0.2716
    113  ND2       28.0730   -4.3550   43.5890 N.am  331  ASN331     -0.0877
@<TRIPOS>BOND
     1    89    88    2
     2    81    82    2
     3    81    80    1
     4    86    87    1
     5    88    87    1
     6     1     2    1
     7    78    77    2
     8    80    79    1
     9    80    83    1
    10    77    76    1
    11    77    79   am
    12    76    75    1
    13    87    90    1
    14     3     2    1
    15     3     4    2
    16     2     5    1
    17    90    91    1
    18    75    70   am
    19    83    84    1
    20    83    85    1
    21    92    91   ar
    22    92    94   ar
    23    61    60    2
    24    70    71    2
    25    70    69    1
    26    91    93   ar
    27    98    99    1
    28     5     6    1
    29    94    96   ar
    30    69    68    1
    31    69    72    1
    32    99   102    1
    33    99   100    1
    34    60    68   am
    35    60    59    1
    36    62    59    1
    37    62    63    1
    38   104   103    1
    39    58    59    1
    40    93    95   ar
    41   102   103    1
    42    25    24    2
    43   101   100    2
    44    96    95   ar
    45    96    97    1
    46   100   106   am
    47    72    74    1
    48    72    73    1
    49    63    64   ar
    50    63    65   ar
    51    64    66   ar
    52   103   105    1
    53    24    26   am
    54    24    23    1
    55   106   107    1
    56    23    20    1
    57    65    67   ar
    58    66    67   ar
    59   108   109    2
    60   108   107    1
    61    22    21    2
    62    18    17    1
    63   107   110    1
    64    20    21    1
    65    20    19    1
    66    17    16   ar
    67    17    15   ar
    68   110   111    1
    69    16    14   ar
    70    42    43    1
    71    42    41    1
    72    43    44    2
    73    46    44    1
    74    53    54    1
    75    53    52    1
    76   111   113   am
    77   111   112    2
    78    41    40    1
    79    15    13   ar
    80    36    37    1
    81    54    55    2
    82    39    38    2
    83    40    37    1
    84    14    12   ar
    85    55    56    1
    86    55    57    1
    87    44    45    1
    88    37    38    1
    89    52    51    1
    90    13    12   ar
    91    12    11    1
    92    51    48    1
    93    47    48    1
    94    50    49    2
    95    48    49    1
    96    11     8    1
    97     9    10    2
    98     9     8    1
    99    34    33    2
   100     8     7    1
   101    35    33   am
   102    33    32    1
   103    32    31    2
   104    31    28    1
   105    28    29    1
   106    28    27    1
   107    29    30    2
