@<TRIPOS>MOLECULE
tmp/1yquC00.pdb
 68 65 0 0 0
SMALL
GASTEIGER

@<TRIPOS>ATOM
      1  N         -1.8110   55.5480  111.6280 N.3   106  ALA106     -0.1231
      2  CA        -2.1980   56.6770  112.4670 C.3   106  ALA106      0.1694
      3  C         -3.3940   56.1980  113.3110 C.2   106  ALA106      0.2592
      4  O         -4.2670   55.4880  112.8060 O.2   106  ALA106     -0.2718
      5  CB        -2.6190   57.8700  111.5910 C.3   106  ALA106      0.0304
      6  N         -3.4470   56.5710  114.5850 N.am  107  ALA107     -0.1966
      7  CA        -4.5690   56.1260  115.4000 C.3   107  ALA107      0.1728
      8  C         -4.8650   56.9750  116.6030 C.2   107  ALA107      0.2616
      9  O         -4.0960   57.8730  116.9620 O.2   107  ALA107     -0.2715
     10  CB        -4.3560   54.7160  115.8540 C.3   107  ALA107      0.0334
     11  N         -5.9890   56.6580  117.2440 N.am  108  GLY108     -0.1955
     12  CA        -6.4140   57.3770  118.4320 C.3   108  GLY108      0.1869
     13  C         -6.1530   56.5520  119.6780 C.2   108  GLY108      0.2309
     14  O         -6.1740   55.3240  119.6520 O.2   108  GLY108     -0.2863
     15  N        -15.6030   59.3310  112.1620 N.3   185  PHE185     -0.1227
     16  CA       -14.8260   59.0220  113.3590 C.3   185  PHE185      0.1736
     17  C        -15.8000   58.3900  114.3920 C.2   185  PHE185      0.2595
     18  O        -17.0210   58.4250  114.2020 O.2   185  PHE185     -0.2718
     19  CB       -14.1890   60.2920  113.9330 C.3   185  PHE185      0.0547
     20  CG       -12.9460   60.7110  113.2180 C.ar  185  PHE185     -0.0202
     21  CD1      -11.7880   59.9360  113.3100 C.ar  185  PHE185     -0.0042
     22  CD2      -12.9550   61.8080  112.3690 C.ar  185  PHE185     -0.0042
     23  CE1      -10.6510   60.2460  112.5420 C.ar  185  PHE185     -0.0003
     24  CE2      -11.8310   62.1260  111.5980 C.ar  185  PHE185     -0.0003
     25  CZ       -10.6780   61.3480  111.6810 C.ar  185  PHE185     -0.0000
     26  N        -15.2640   57.8220  115.4720 N.am  186  GLU186     -0.1979
     27  CA       -16.0700   57.1770  116.5190 C.3   186  GLU186      0.1602
     28  C        -16.7940   58.1690  117.3800 C.2   186  GLU186      0.2287
     29  O        -16.2770   59.2480  117.5980 O.2   186  GLU186     -0.2864
     30  CB       -15.1860   56.3670  117.4510 C.3   186  GLU186      0.0415
     31  CG       -14.4290   55.2970  116.7430 C.3   186  GLU186      0.1163
     32  CD       -13.1890   55.7980  116.0470 C.2   186  GLU186      0.3649
     33  OE1      -12.6960   56.9090  116.3670 O.co2 186  GLU186     -0.2457
     34  OE2      -12.6740   55.0530  115.1840 O.co2 186  GLU186     -0.2457
     35  N         -7.3930   52.7990  118.7820 N.3   202  VAL202     -0.1231
     36  CA        -8.4930   52.6240  117.8420 C.3   202  VAL202      0.1692
     37  C         -8.1070   53.1650  116.4550 C.2   202  VAL202      0.2593
     38  O         -7.5150   54.2360  116.3400 O.2   202  VAL202     -0.2718
     39  CB        -9.7330   53.3550  118.3610 C.3   202  VAL202      0.0266
     40  CG1       -9.4380   54.8060  118.4560 C.3   202  VAL202      0.0020
     41  CG2      -10.9080   53.1210  117.4570 C.3   202  VAL202      0.0020
     42  N         -8.4410   52.4300  115.4030 N.am  203  GLY203     -0.1942
     43  CA        -8.0850   52.8940  114.0780 C.3   203  GLY203      0.2014
     44  C         -8.9680   52.2970  113.0080 C.2   203  GLY203      0.2641
     45  O         -9.8150   51.4600  113.3010 O.2   203  GLY203     -0.2714
     46  N         -8.7550   52.7100  111.7610 N.am  204  MET204     -0.1931
     47  CA        -9.5600   52.2250  110.6410 C.3   204  MET204      0.1821
     48  C         -8.8470   51.2370  109.7100 C.2   204  MET204      0.2332
     49  O         -9.3520   50.9690  108.6100 O.2   204  MET204     -0.2860
     50  CB       -10.0610   53.4080  109.7840 C.2   204  MET204      0.0096
     51  CG       -10.8980   54.4700  110.5050 C.2   204  MET204      0.0285
     52  SD       -11.2420   56.0030  109.6210 S.3   204  MET204     -0.1125
     53  CE       -12.1240   56.9450  110.9590 C.3   204  MET204      0.0742
     54  N         -2.2590   60.0730  117.0620 N.3   227  THR227     -0.1203
     55  CA        -2.4760   61.4340  116.5870 C.3   227  THR227      0.1994
     56  C         -3.4270   62.2950  117.4080 C.2   227  THR227      0.2617
     57  O         -3.5470   63.5030  117.1370 O.2   227  THR227     -0.2717
     58  CB        -3.0110   61.4300  115.1900 C.3   227  THR227      0.1784
     59  OG1       -4.2720   60.7600  115.1850 O.3   227  THR227     -0.2211
     60  CG2       -2.0470   60.7140  114.2790 C.3   227  THR227      0.0376
     61  N         -4.0990   61.6750  118.3850 N.am  228  ASN228     -0.1974
     62  CA        -5.0650   62.3480  119.2600 C.3   228  ASN228      0.1688
     63  C         -5.6300   61.4400  120.3850 C.2   228  ASN228      0.2292
     64  O         -5.6540   60.1960  120.3140 O.2   228  ASN228     -0.2864
     65  CB        -6.2120   62.9040  118.4100 C.3   228  ASN228      0.1181
     66  CG        -6.8370   61.8420  117.5140 C.2   228  ASN228      0.2629
     67  OD1       -6.2920   61.4630  116.4700 O.2   228  ASN228     -0.2716
     68  ND2       -7.9890   61.3500  117.9310 N.am  228  ASN228     -0.0877
@<TRIPOS>BOND
     1    49    48    2
     2    52    51    1
     3    52    53    1
     4    48    47    1
     5    50    51    2
     6    50    47    1
     7    47    46    1
     8     5     2    1
     9    24    25   ar
    10    24    22   ar
    11     1     2    1
    12    25    23   ar
    13    46    44   am
    14    15    16    1
    15    22    20   ar
    16     2     3    1
    17    23    21   ar
    18     4     3    2
    19    44    45    2
    20    44    43    1
    21    20    21   ar
    22    20    19    1
    23     3     6   am
    24    16    19    1
    25    16    17    1
    26    43    42    1
    27    18    17    2
    28    60    58    1
    29    17    26   am
    30     6     7    1
    31    34    32   ar
    32    59    58    1
    33    58    55    1
    34     7    10    1
    35     7     8    1
    36    42    37   am
    37    26    27    1
    38    32    33   ar
    39    32    31    1
    40    38    37    2
    41    37    36    1
    42    67    66    2
    43    27    28    1
    44    27    30    1
    45    55    54    1
    46    55    56    1
    47     8     9    2
    48     8    11   am
    49    31    30    1
    50    57    56    2
    51    11    12    1
    52    28    29    2
    53    56    61   am
    54    41    39    1
    55    66    68   am
    56    66    65    1
    57    36    39    1
    58    36    35    1
    59    39    40    1
    60    61    62    1
    61    65    62    1
    62    12    13    1
    63    62    63    1
    64    14    13    2
    65    64    63    2
