@<TRIPOS>MOLECULE
tmp/1yqyA00.pdb
 167 160 0 0 0
SMALL
GASTEIGER

@<TRIPOS>ATOM
      1  N          7.9490   12.5390   22.9320 N.3    64  ASP64      -0.1225
      2  CA         8.0190   13.9820   23.1600 C.3    64  ASP64       0.1805
      3  C          8.9750   14.6770   22.1870 C.2    64  ASP64       0.2597
      4  O          9.3070   15.8730   22.3570 O.2    64  ASP64      -0.2718
      5  CB         8.4720   14.2710   24.6070 C.3    64  ASP64       0.1424
      6  CG         9.6420   13.4090   25.0420 C.2    64  ASP64       0.3668
      7  OD1       10.0520   12.5210   24.2520 O.co2  64  ASP64      -0.2456
      8  OD2       10.1480   13.6170   26.1740 O.co2  64  ASP64      -0.2456
      9  N          9.4200   13.9170   21.1820 N.am   65  PHE65      -0.1976
     10  CA        10.3770   14.4110   20.1950 C.3    65  PHE65       0.1639
     11  C          9.8760   14.3430   18.7340 C.2    65  PHE65       0.2290
     12  O         10.6600   14.4170   17.7910 O.2    65  PHE65      -0.2864
     13  CB        11.7020   13.6720   20.3660 C.3    65  PHE65       0.0560
     14  CG        11.5890   12.1650   20.3650 C.ar   65  PHE65      -0.0200
     15  CD1       11.7900   11.4410   19.1920 C.ar   65  PHE65      -0.0042
     16  CD2       11.3500   11.4600   21.5470 C.ar   65  PHE65      -0.0042
     17  CE1       11.7720   10.0520   19.1950 C.ar   65  PHE65      -0.0003
     18  CE2       11.3800   10.0710   21.5540 C.ar   65  PHE65      -0.0003
     19  CZ        11.5510    9.3630   20.3770 C.ar   65  PHE65      -0.0000
     20  N         17.3880   16.3870   19.0280 N.3   389  VAL389     -0.1245
     21  CA        16.0020   16.4970   19.4120 C.3   389  VAL389      0.1561
     22  C         15.4070   17.8500   19.1170 C.2   389  VAL389      0.2260
     23  O         16.0820   18.8670   19.2480 O.2   389  VAL389     -0.2867
     24  CB        15.8440   16.2570   20.9580 C.3   389  VAL389      0.0252
     25  CG1       14.5160   16.6330   21.3920 C.3   389  VAL389      0.0019
     26  CG2       16.1010   14.8190   21.3260 C.3   389  VAL389      0.0019
     27  N         12.0600   20.0700   20.3360 N.3   391  SER391     -0.1202
     28  CA        11.0170   20.0420   21.3520 C.3   391  SER391      0.2020
     29  C         10.8520   21.4690   21.8210 C.2   391  SER391      0.2619
     30  O         11.5490   22.3460   21.3160 O.2   391  SER391     -0.2717
     31  CB        11.4340   19.1330   22.5300 C.3   391  SER391      0.2103
     32  OG        12.7210   19.4870   23.0660 O.3   391  SER391     -0.2182
     33  N          9.9060   21.6970   22.7380 N.am  392  LYS392     -0.1965
     34  CA         9.6810   23.0290   23.3050 C.3   392  LYS392      0.1728
     35  C         10.9370   23.5810   23.9320 C.2   392  LYS392      0.2617
     36  O         11.2680   24.7560   23.7660 O.2   392  LYS392     -0.2715
     37  CB         8.5990   22.9790   24.4120 C.3   392  LYS392      0.0311
     38  CG         8.2640   24.3530   25.0580 C.3   392  LYS392      0.0038
     39  CD         7.9510   25.3390   23.9540 C.3   392  LYS392      0.0206
     40  CE         6.8860   26.3230   24.2780 C.3   392  LYS392      0.1093
     41  NZ         6.6210   27.2090   23.1010 N.3   392  LYS392     -0.1314
     42  N         11.5890   22.7550   24.7510 N.am  393  GLY393     -0.1940
     43  CA        12.7530   23.2290   25.4970 C.3   393  GLY393      0.2014
     44  C         13.8280   22.1730   25.5910 C.2   393  GLY393      0.2639
     45  O         13.5530   20.9760   25.4130 O.2   393  GLY393     -0.2714
     46  N         15.0400   22.6220   25.9000 N.am  394  LEU394     -0.1963
     47  CA        16.1720   21.7160   26.0980 C.3   394  LEU394      0.1728
     48  C         17.2760   22.3480   26.9500 C.2   394  LEU394      0.2616
     49  O         17.5660   23.5520   26.8340 O.2   394  LEU394     -0.2715
     50  CB        16.7390   21.2910   24.7230 C.3   394  LEU394      0.0311
     51  CG        17.6240   20.0540   24.6290 C.3   394  LEU394      0.0022
     52  CD1       16.8640   18.7810   25.0470 C.3   394  LEU394      0.0001
     53  CD2       18.1250   19.8940   23.2410 C.3   394  LEU394      0.0001
     54  N         17.9040   21.5460   27.8060 N.am  395  TYR395     -0.1974
     55  CA        19.0730   21.9970   28.5350 C.3   395  TYR395      0.1639
     56  C         20.2150   21.1010   28.0450 C.2   395  TYR395      0.2290
     57  O         20.1060   19.8610   28.0760 O.2   395  TYR395     -0.2864
     58  CB        18.9380   21.8250   30.0340 C.3   395  TYR395      0.0560
     59  CG        20.2380   22.2080   30.7350 C.ar  395  TYR395     -0.0198
     60  CD1       20.6800   23.5320   30.7540 C.ar  395  TYR395     -0.0009
     61  CD2       21.0660   21.2480   31.2770 C.ar  395  TYR395     -0.0009
     62  CE1       21.8980   23.8750   31.3330 C.ar  395  TYR395      0.0417
     63  CE2       22.2480   21.5980   31.9210 C.ar  395  TYR395      0.0417
     64  CZ        22.6720   22.9040   31.8860 C.ar  395  TYR395      0.1957
     65  OH        23.8720   23.2120   32.3810 O.3   395  TYR395     -0.2866
     66  N          4.4920   23.6510   21.3420 N.3   409  LYS409     -0.1231
     67  CA         3.7060   23.5130   22.5490 C.3   409  LYS409      0.1693
     68  C          4.4120   22.4850   23.4280 C.2   409  LYS409      0.2593
     69  O          4.9130   21.4770   22.9500 O.2   409  LYS409     -0.2718
     70  CB         2.2900   23.0280   22.1700 C.3   409  LYS409      0.0285
     71  CG         1.3040   23.0100   23.3190 C.3   409  LYS409      0.0035
     72  CD         0.4950   24.3000   23.3810 C.3   409  LYS409      0.0206
     73  CE        -0.2400   24.4320   24.7130 C.3   409  LYS409      0.1093
     74  NZ        -1.1680   25.5990   24.7140 N.3   409  LYS409     -0.1314
     75  N          4.5380   22.7970   24.7070 N.am  410  GLY410     -0.1942
     76  CA         5.1990   21.8760   25.6280 C.3   410  GLY410      0.2014
     77  C          4.1130   21.0750   26.3190 C.2   410  GLY410      0.2638
     78  O          2.9410   21.4610   26.3030 O.2   410  GLY410     -0.2714
     79  N          4.5140   19.9700   26.9190 N.am  411  VAL411     -0.1977
     80  CA         3.5880   19.0690   27.6240 C.3   411  VAL411      0.1596
     81  C          2.9810   19.7020   28.8810 C.2   411  VAL411      0.2287
     82  O          3.6620   19.8650   29.9070 O.2   411  VAL411     -0.2864
     83  CB         4.3270   17.7690   28.0510 C.3   411  VAL411      0.0276
     84  CG1        3.3920   16.8280   28.7610 C.3   411  VAL411      0.0022
     85  CG2        4.9640   17.0910   26.8200 C.3   411  VAL411      0.0022
     86  N          1.9100   22.7500   29.6990 N.3   413  LEU413     -0.1245
     87  CA         2.4800   24.0030   30.1600 C.3   413  LEU413      0.1561
     88  C          1.4500   25.0800   29.8830 C.2   413  LEU413      0.2260
     89  O          0.7040   24.9860   28.9460 O.2   413  LEU413     -0.2867
     90  CB         3.7810   24.3050   29.4120 C.3   413  LEU413      0.0270
     91  CG         5.0000   23.4210   29.6580 C.3   413  LEU413      0.0019
     92  CD1        6.2260   24.0390   28.9720 C.3   413  LEU413      0.0001
     93  CD2        5.2500   23.2340   31.1300 C.3   413  LEU413      0.0001
     94  N          8.0940   26.6810   30.7400 N.3   419  GLY419     -0.1225
     95  CA         9.0620   25.8000   30.0600 C.3   419  GLY419      0.1811
     96  C         10.4610   26.2030   30.4550 C.2   419  GLY419      0.2280
     97  O         11.2980   25.3600   30.8240 O.2   419  GLY419     -0.2866
     98  N         11.4350   25.1450   34.0160 N.3   422  HIS422     -0.1226
     99  CA        11.7120   23.7120   33.9710 C.3   422  HIS422      0.1752
    100  C         13.1020   23.4950   33.4240 C.2   422  HIS422      0.2595
    101  O         13.8620   22.7350   33.9870 O.2   422  HIS422     -0.2718
    102  CB        10.6630   22.9920   33.0700 C.3   422  HIS422      0.0759
    103  CG        11.0880   21.6320   32.5970 C.ar  422  HIS422      0.0818
    104  ND1       10.4370   20.4830   32.9780 N.ar  422  HIS422     -0.2268
    105  CD2       12.0460   21.2470   31.7200 C.ar  422  HIS422      0.1154
    106  CE1       10.9990   19.4390   32.3810 C.ar  422  HIS422      0.1986
    107  NE2       11.9520   19.8830   31.5780 N.ar  422  HIS422     -0.2212
    108  N         13.4760   24.2290   32.3690 N.am  423  GLU423     -0.1979
    109  CA        14.8350   24.0900   31.7980 C.3   423  GLU423      0.1602
    110  C         15.8700   24.5240   32.8380 C.2   423  GLU423      0.2287
    111  O         16.9050   23.8900   33.0120 O.2   423  GLU423     -0.2864
    112  CB        15.0070   24.9410   30.5330 C.3   423  GLU423      0.0415
    113  CG        14.2790   24.5340   29.2600 C.3   423  GLU423      0.1163
    114  CD        14.0090   23.0320   29.1310 C.2   423  GLU423      0.3649
    115  OE1       12.9350   22.7230   28.6320 O.co2 423  GLU423     -0.2457
    116  OE2       14.8860   22.1810   29.3800 O.co2 423  GLU423     -0.2457
    117  N         16.9130   21.9410   35.1260 N.3   426  HIS426     -0.1241
    118  CA        17.9600   21.0790   34.6360 C.3   426  HIS426      0.1621
    119  C         19.3170   21.6430   34.9300 C.2   426  HIS426      0.2264
    120  O         20.2430   20.9050   35.2400 O.2   426  HIS426     -0.2867
    121  CB        17.8270   20.7890   33.0770 C.3   426  HIS426      0.0745
    122  CG        16.6720   19.9100   32.7150 C.ar  426  HIS426      0.0817
    123  ND1       16.4650   18.6730   33.2830 N.ar  426  HIS426     -0.2268
    124  CD2       15.6250   20.1220   31.8880 C.ar  426  HIS426      0.1154
    125  CE1       15.3520   18.1490   32.7960 C.ar  426  HIS426      0.1986
    126  NE2       14.8240   19.0070   31.9500 N.ar  426  HIS426     -0.2212
    127  N          4.4640   13.7640   32.8470 N.3   464  TYR464     -0.1241
    128  CA         5.7840   14.0270   32.2930 C.3   464  TYR464      0.1605
    129  C          6.8990   13.8740   33.3280 C.2   464  TYR464      0.2264
    130  O          8.0300   13.4830   32.9970 O.2   464  TYR464     -0.2867
    131  CB         5.8320   15.4030   31.6030 C.3   464  TYR464      0.0534
    132  CG         7.0530   15.5710   30.7420 C.ar  464  TYR464     -0.0201
    133  CD1        7.1920   14.8350   29.5640 C.ar  464  TYR464     -0.0009
    134  CD2        8.1500   16.2950   31.2000 C.ar  464  TYR464     -0.0009
    135  CE1        8.3580   14.8900   28.8170 C.ar  464  TYR464      0.0417
    136  CE2        9.3270   16.3300   30.4610 C.ar  464  TYR464      0.0417
    137  CZ         9.4210   15.6330   29.2730 C.ar  464  TYR464      0.1957
    138  OH        10.5790   15.6330   28.5470 O.3   464  TYR464     -0.2866
    139  N         14.0140   14.5640   34.5270 N.3   471  GLU471     -0.1245
    140  CA        12.7580   15.2640   34.2450 C.3   471  GLU471      0.1567
    141  C         11.8640   15.4180   35.4490 C.2   471  GLU471      0.2260
    142  O         11.0720   16.3780   35.5470 O.2   471  GLU471     -0.2867
    143  CB        11.9600   14.5060   33.1700 C.3   471  GLU471      0.0388
    144  CG        12.7820   14.1590   31.9520 C.3   471  GLU471      0.1160
    145  CD        13.2410   15.4040   31.2180 C.2   471  GLU471      0.3649
    146  OE1       12.5060   16.4120   31.2710 O.co2 471  GLU471     -0.2457
    147  OE2       14.3800   15.4010   30.7150 O.co2 471  GLU471     -0.2457
    148  N         10.5980   18.9460   36.7030 N.3   475  GLU475     -0.1245
    149  CA         9.1410   19.1780   36.8530 C.3   475  GLU475      0.1567
    150  C          8.7520   19.6090   38.2850 C.2   475  GLU475      0.2260
    151  O          7.9640   20.5340   38.4920 O.2   475  GLU475     -0.2867
    152  CB         8.3630   17.9050   36.4700 C.3   475  GLU475      0.0388
    153  CG         8.0890   17.7540   34.9600 C.3   475  GLU475      0.1160
    154  CD         7.3200   18.9230   34.3930 C.2   475  GLU475      0.3649
    155  OE1        6.1330   18.7470   34.0660 O.co2 475  GLU475     -0.2457
    156  OE2        7.9050   20.0330   34.2850 O.co2 475  GLU475     -0.2457
    157  N          9.9990   23.0700   38.7020 N.3   478  ARG478     -0.1245
    158  CA         9.1180   24.0070   38.0150 C.3   478  ARG478      0.1563
    159  C          7.8770   24.2890   38.8430 C.2   478  ARG478      0.2260
    160  O          7.4140   25.4390   38.9110 O.2   478  ARG478     -0.2867
    161  CB         8.6520   23.4150   36.6940 C.3   478  ARG478      0.0307
    162  CG         7.4990   24.1860   36.0790 C.3   478  ARG478      0.0489
    163  CD         7.2230   23.7440   34.6390 C.3   478  ARG478      0.2205
    164  NE         6.6070   22.4220   34.5690 N.pl3 478  ARG478     -0.0865
    165  CZ         5.2910   22.1820   34.6870 C.cat 478  ARG478      0.5346
    166  NH1        4.4410   23.1750   34.9300 N.pl3 478  ARG478      0.1354
    167  NH2        4.8130   20.9320   34.5140 N.pl3 478  ARG478      0.1354
@<TRIPOS>BOND
     1    12    11    2
     2    11    10    1
     3    20    21    1
     4    22    23    2
     5    22    21    1
     6    15    17   ar
     7    15    14   ar
     8    17    19   ar
     9    21    24    1
    10    10    13    1
    11    10     9    1
    12    27    28    1
    13    14    13    1
    14    14    16   ar
    15    19    18   ar
    16    24    26    1
    17    24    25    1
    18     9     3   am
    19    30    29    2
    20    66    67    1
    21    28    29    1
    22    28    31    1
    23    16    18   ar
    24    29    33   am
    25    70    67    1
    26    70    71    1
    27     3     4    2
    28     3     2    1
    29    31    32    1
    30    67    68    1
    31    33    34    1
    32     1     2    1
    33    69    68    2
    34    41    40    1
    35     2     5    1
    36    53    51    1
    37    34    35    1
    38    34    37    1
    39    71    72    1
    40    72    73    1
    41    68    75   am
    42    36    35    2
    43    35    42   am
    44    39    40    1
    45    39    38    1
    46     7     6   ar
    47    37    38    1
    48     5     6    1
    49    51    50    1
    50    51    52    1
    51    75    76    1
    52    73    74    1
    53    50    47    1
    54    42    43    1
    55     6     8   ar
    56    45    44    2
    57    43    44    1
    58    44    46   am
    59    76    77    1
    60    46    47    1
    61    47    48    1
    62    78    77    2
    63    77    79   am
    64    85    83    1
    65    49    48    2
    66    79    80    1
    67    48    54   am
    68    80    83    1
    69    80    81    1
    70    54    55    1
    71    56    57    2
    72    56    55    1
    73    83    84    1
    74    55    58    1
    75   138   137    1
    76   115   114   ar
    77   135   137   ar
    78   135   133   ar
    79    81    82    2
    80    89    88    2
    81    92    91    1
    82   114   113    1
    83   114   116   ar
    84   113   112    1
    85   137   136   ar
    86    90    91    1
    87    90    87    1
    88   133   132   ar
    89    91    93    1
    90    86    87    1
    91    88    87    1
    92    58    59    1
    93    95    96    1
    94    95    94    1
    95    96    97    2
    96   136   134   ar
    97   112   109    1
    98   147   145   ar
    99    59    60   ar
   100    59    61   ar
   101   132   134   ar
   102   132   131    1
   103    60    62   ar
   104   145   146   ar
   105   145   144    1
   106    61    63   ar
   107    62    64   ar
   108   107   105   ar
   109   107   106   ar
   110   131   128    1
   111   105   103   ar
   112   109   108    1
   113   109   110    1
   114    64    63   ar
   115    64    65    1
   116   124   126   ar
   117   124   122   ar
   118   126   125   ar
   119   144   143    1
   120   128   127    1
   121   128   129    1
   122   108   100   am
   123   106   104   ar
   124   103   104   ar
   125   103   102    1
   126   122   121    1
   127   122   123   ar
   128   125   123   ar
   129   110   111    2
   130   130   129    2
   131   102    99    1
   132   121   118    1
   133   143   140    1
   134   100    99    1
   135   100   101    2
   136    99    98    1
   137   155   154   ar
   138   140   139    1
   139   140   141    1
   140   156   154   ar
   141   154   153    1
   142   167   165    1
   143   164   163    1
   144   164   165    2
   145   118   119    1
   146   118   117    1
   147   163   162    1
   148   165   166    1
   149   119   120    2
   150   153   152    1
   151   141   142    2
   152   162   161    1
   153   152   149    1
   154   161   158    1
   155   148   149    1
   156   149   150    1
   157   158   157    1
   158   158   159    1
   159   150   151    2
   160   159   160    2
