@<TRIPOS>MOLECULE
tmp/1yqzA00.pdb
 144 137 0 0 0
SMALL
GASTEIGER

@<TRIPOS>ATOM
      1  N         28.0230    5.2040  -12.6710 N.3     9  VAL9       -0.1231
      2  CA        27.9590    6.0120  -11.4530 C.3     9  VAL9        0.1692
      3  C         26.9810    5.5140  -10.3730 C.2     9  VAL9        0.2591
      4  O         27.0590    4.3460  -10.0030 O.2     9  VAL9       -0.2718
      5  CB        27.7700    7.5130  -11.8240 C.3     9  VAL9        0.0266
      6  CG1       28.1890    8.4180  -10.6500 C.3     9  VAL9        0.0020
      7  CG2       28.6840    7.8750  -13.0070 C.3     9  VAL9        0.0020
      8  N         26.0280    6.3340   -9.9000 N.am   10  ALA10      -0.1980
      9  CA        25.2290    5.8990   -8.7440 C.3    10  ALA10       0.1597
     10  C         24.4780    4.5930   -8.8720 C.2    10  ALA10       0.2287
     11  O         24.4900    3.7670   -7.9490 O.2    10  ALA10      -0.2864
     12  CB        24.2890    7.0220   -8.3000 C.3    10  ALA10       0.0319
     13  N         27.6330    1.7480  -11.4990 N.3    13  ALA13      -0.1231
     14  CA        28.8100    1.1790  -10.8550 C.3    13  ALA13       0.1694
     15  C         28.3660    0.4220   -9.6100 C.2    13  ALA13       0.2592
     16  O         28.8890   -0.6520   -9.3180 O.2    13  ALA13      -0.2718
     17  CB        29.8120    2.2720  -10.5090 C.3    13  ALA13       0.0304
     18  N         27.3820    0.9590   -8.8880 N.am   14  THR14      -0.1953
     19  CA        26.8740    0.2690   -7.7040 C.3    14  THR14       0.1897
     20  C         26.2870   -1.1050   -8.0610 C.2    14  THR14       0.2313
     21  O         26.5570   -2.1100   -7.3870 O.2    14  THR14      -0.2863
     22  CB        25.7780    1.1140   -7.0380 C.3    14  THR14       0.1794
     23  OG1       26.2880    2.4300   -6.8100 O.3    14  THR14      -0.2208
     24  CG2       25.3420    0.4980   -5.7110 C.3    14  THR14       0.0378
     25  N         28.9520   -3.6180   -8.9770 N.3    17  SER17      -0.1202
     26  CA        29.6260   -4.0080   -7.7370 C.3    17  SER17       0.2020
     27  C         28.7670   -4.9880   -6.9400 C.2    17  SER17       0.2618
     28  O         29.2790   -5.9760   -6.4160 O.2    17  SER17      -0.2717
     29  CB        29.9130   -2.7650   -6.8880 C.3    17  SER17       0.2103
     30  OG        30.4520   -3.0950   -5.6040 O.3    17  SER17      -0.2182
     31  N         27.4580   -4.7370   -6.8590 N.am   18  GLN18      -0.1979
     32  CA        26.5850   -5.6310   -6.0880 C.3    18  GLN18       0.1601
     33  C         26.4730   -7.0030   -6.7360 C.2    18  GLN18       0.2287
     34  O         26.3370   -8.0110   -6.0460 O.2    18  GLN18      -0.2864
     35  CB        25.1860   -5.0200   -5.9010 C.3    18  GLN18       0.0394
     36  CG        25.1900   -3.7340   -5.0720 C.3    18  GLN18       0.0908
     37  CD        25.5970   -3.9900   -3.6290 C.2    18  GLN18       0.2608
     38  OE1       25.0250   -4.8550   -2.9560 O.2    18  GLN18      -0.2717
     39  NE2       26.5760   -3.2410   -3.1460 N.am   18  GLN18      -0.0878
     40  N         29.5710   -9.0360   -5.8710 N.3    21  ARG21      -0.1245
     41  CA        29.5590   -9.5810   -4.5120 C.3    21  ARG21       0.1563
     42  C         28.9710  -10.9920   -4.4960 C.2    21  ARG21       0.2260
     43  O         29.4030  -11.8370   -3.7040 O.2    21  ARG21      -0.2867
     44  CB        28.7020   -8.7290   -3.5650 C.3    21  ARG21       0.0307
     45  CG        29.2340   -7.3760   -3.2310 C.3    21  ARG21       0.0489
     46  CD        28.3620   -6.7340   -2.1420 C.3    21  ARG21       0.2205
     47  NE        28.5210   -7.3940   -0.8510 N.pl3  21  ARG21      -0.0865
     48  CZ        29.4940   -7.1010    0.0060 C.cat  21  ARG21       0.5346
     49  NH1       30.3760   -6.1600   -0.2960 N.pl3  21  ARG21       0.1354
     50  NH2       29.5900   -7.7430    1.1620 N.pl3  21  ARG21       0.1354
     51  N         32.1580    6.5730  -11.1400 N.3    38  SER38      -0.1202
     52  CA        32.0360    6.7030   -9.6910 C.3    38  SER38       0.2020
     53  C         32.3800    8.0560   -9.0700 C.2    38  SER38       0.2619
     54  O         32.9520    8.0960   -7.9550 O.2    38  SER38      -0.2717
     55  CB        32.8970    5.6260   -9.0150 C.3    38  SER38       0.2103
     56  OG        32.5240    4.3030   -9.4080 O.3    38  SER38      -0.2182
     57  N         32.0610    9.1540   -9.7510 N.am   39  PHE39      -0.1961
     58  CA        32.2980   10.4560   -9.1470 C.3    39  PHE39       0.1771
     59  C         31.1840   10.6490   -8.1030 C.2    39  PHE39       0.2619
     60  O         30.1080   10.0210   -8.1770 O.2    39  PHE39      -0.2715
     61  CB        32.3160   11.5890  -10.1960 C.3    39  PHE39       0.0574
     62  CG        31.0400   11.7380  -10.9800 C.ar   39  PHE39      -0.0200
     63  CD1       29.9770   12.4930  -10.4710 C.ar   39  PHE39      -0.0042
     64  CD2       30.9150   11.1640  -12.2470 C.ar   39  PHE39      -0.0042
     65  CE1       28.8010   12.6800  -11.2220 C.ar   39  PHE39      -0.0003
     66  CE2       29.7400   11.3410  -13.0110 C.ar   39  PHE39      -0.0003
     67  CZ        28.6870   12.0990  -12.4980 C.ar   39  PHE39      -0.0000
     68  N         31.4510   11.5160   -7.1320 N.am   40  ALA40      -0.1963
     69  CA        30.5020   11.7500   -6.0570 C.3    40  ALA40       0.1728
     70  C         29.5370   12.8530   -6.4550 C.2    40  ALA40       0.2616
     71  O         29.7610   14.0130   -6.1150 O.2    40  ALA40      -0.2715
     72  CB        31.2760   12.1320   -4.7700 C.3    40  ALA40       0.0334
     73  N         28.4580   12.4810   -7.1610 N.am   41  ASN41      -0.1958
     74  CA        27.5010   13.4690   -7.6590 C.3    41  ASN41       0.1819
     75  C         27.0550   14.4490   -6.5960 C.2    41  ASN41       0.2621
     76  O         27.0090   15.6620   -6.8290 O.2    41  ASN41      -0.2715
     77  CB        26.1880   12.8520   -8.1970 C.3    41  ASN41       0.1195
     78  CG        26.3340   11.4400   -8.7490 C.2    41  ASN41       0.2630
     79  OD1       26.7770   10.5210   -8.0540 O.2    41  ASN41      -0.2716
     80  ND2       25.9050   11.2550  -10.0040 N.am   41  ASN41      -0.0877
     81  N         26.7140   13.9050   -5.4270 N.am   42  CYS42      -0.1968
     82  CA        26.1740   14.7410   -4.3610 C.3    42  CYS42       0.1712
     83  C         27.1980   15.6310   -3.6770 C.2    42  CYS42       0.2296
     84  O         26.8420   16.5970   -2.9850 O.2    42  CYS42      -0.2864
     85  CB        25.4140   13.8610   -3.3580 C.3    42  CYS42       0.0983
     86  SG        24.0090   12.9790   -4.1050 S.3    42  CYS42      -0.0798
     87  N         35.5100    7.9900   -6.3540 N.3    60  ALA60      -0.1231
     88  CA        35.7160    6.7880   -5.5500 C.3    60  ALA60       0.1694
     89  C         36.5440    5.7250   -6.2320 C.2    60  ALA60       0.2592
     90  O         37.1650    4.8950   -5.5730 O.2    60  ALA60      -0.2718
     91  CB        34.3760    6.1970   -5.1350 C.3    60  ALA60       0.0304
     92  N         36.5540    5.7500   -7.5540 N.am   61  TYR61      -0.1976
     93  CA        37.2970    4.7560   -8.3130 C.3    61  TYR61       0.1639
     94  C         37.7270    5.2380   -9.6740 C.2    61  TYR61       0.2290
     95  O         37.2190    6.2270  -10.1960 O.2    61  TYR61      -0.2864
     96  CB        36.4370    3.5150   -8.5390 C.3    61  TYR61       0.0560
     97  CG        36.4500    2.4990   -7.4390 C.ar   61  TYR61      -0.0198
     98  CD1       35.3710    2.3730   -6.5670 C.ar   61  TYR61      -0.0009
     99  CD2       37.5270    1.6190   -7.2980 C.ar   61  TYR61      -0.0009
    100  CE1       35.3550    1.3890   -5.5780 C.ar   61  TYR61       0.0417
    101  CE2       37.5220    0.6420   -6.3230 C.ar   61  TYR61       0.0417
    102  CZ        36.4380    0.5260   -5.4650 C.ar   61  TYR61       0.1957
    103  OH        36.4560   -0.4480   -4.4950 O.3    61  TYR61      -0.2866
    104  N         39.0040   -0.3300  -10.2440 N.3    66  PHE66      -0.1241
    105  CA        37.7920   -1.1240  -10.2150 C.3    66  PHE66       0.1605
    106  C         38.0810   -2.5300  -10.7220 C.2    66  PHE66       0.2264
    107  O         37.5250   -3.5090  -10.2280 O.2    66  PHE66      -0.2867
    108  CB        36.7300   -0.4650  -11.1020 C.3    66  PHE66       0.0534
    109  CG        35.3270   -0.6080  -10.5890 C.ar   66  PHE66      -0.0203
    110  CD1       34.9540   -0.0180   -9.3860 C.ar   66  PHE66      -0.0042
    111  CD2       34.3610   -1.2480  -11.3560 C.ar   66  PHE66      -0.0042
    112  CE1       33.6150   -0.0540   -8.9560 C.ar   66  PHE66      -0.0003
    113  CE2       33.0200   -1.2930  -10.9400 C.ar   66  PHE66      -0.0003
    114  CZ        32.6450   -0.6920   -9.7360 C.ar   66  PHE66      -0.0000
    115  N         37.6200   -5.4130   -8.1430 N.3    70  LYS70      -0.1245
    116  CA        36.3840   -6.1440   -8.4300 C.3    70  LYS70       0.1561
    117  C         36.3280   -6.9340   -9.7330 C.2    70  LYS70       0.2260
    118  O         35.3210   -7.5770  -10.0270 O.2    70  LYS70      -0.2867
    119  CB        35.1920   -5.1780   -8.3930 C.3    70  LYS70       0.0271
    120  CG        35.0360   -4.3890   -7.0910 C.3    70  LYS70       0.0035
    121  CD        33.8530   -3.4210   -7.2010 C.3    70  LYS70       0.0206
    122  CE        33.6460   -2.5800   -5.9570 C.3    70  LYS70       0.1093
    123  NZ        33.3670   -3.4160   -4.7460 N.3    70  LYS70      -0.1314
    124  N         19.4420    9.5070   -4.8790 N.3   294  ALA294     -0.1245
    125  CA        20.4480    8.4590   -4.7070 C.3   294  ALA294      0.1562
    126  C         19.9930    7.1920   -4.0210 C.2   294  ALA294      0.2260
    127  O         20.4330    6.0900   -4.3930 O.2   294  ALA294     -0.2867
    128  CB        21.6600    9.0190   -3.9850 C.3   294  ALA294      0.0290
    129  N         20.6890    3.3170   -5.5250 N.3   298  HIS298     -0.1241
    130  CA        21.3540    2.2440   -4.7780 C.3   298  HIS298      0.1621
    131  C         20.4360    1.0580   -4.4440 C.2   298  HIS298      0.2264
    132  O         20.8640   -0.1100   -4.4940 O.2   298  HIS298     -0.2867
    133  CB        21.9680    2.7810   -3.4720 C.3   298  HIS298      0.0745
    134  CG        23.2610    3.5010   -3.6630 C.ar  298  HIS298      0.0817
    135  ND1       24.4330    3.0750   -3.0670 N.ar  298  HIS298     -0.2268
    136  CD2       23.5870    4.5820   -4.4100 C.ar  298  HIS298      0.1154
    137  CE1       25.4240    3.8670   -3.4420 C.ar  298  HIS298      0.1986
    138  NE2       24.9390    4.7910   -4.2600 N.ar  298  HIS298     -0.2212
    139  N         20.8270   -2.9540   -5.8460 N.3   302  SER302     -0.1217
    140  CA        20.8630   -4.2180   -5.0900 C.3   302  SER302      0.1889
    141  C         19.7740   -5.1980   -5.5090 C.2   302  SER302      0.2288
    142  O         19.9820   -6.4090   -5.5270 O.2   302  SER302     -0.2866
    143  CB        20.7320   -3.9610   -3.5740 C.3   302  SER302      0.2089
    144  OG        21.9570   -3.5100   -3.0210 O.3   302  SER302     -0.2183
@<TRIPOS>BOND
     1    66    67   ar
     2    66    64   ar
     3     7     5    1
     4     1     2    1
     5    67    65   ar
     6    64    62   ar
     7     5     2    1
     8     5     6    1
     9    13    14    1
    10     2     3    1
    11   111   113   ar
    12   111   109   ar
    13    65    63   ar
    14    51    52    1
    15   108   109    1
    16   108   105    1
    17    62    63   ar
    18    62    61    1
    19   113   114   ar
    20    14    17    1
    21    14    15    1
    22   106   107    2
    23   106   105    1
    24   109   110   ar
    25     3     4    2
    26     3     8   am
    27   104   105    1
    28    95    94    2
    29    61    58    1
    30   118   117    2
    31    80    78   am
    32     8     9    1
    33    57    58    1
    34    57    53   am
    35   114   112   ar
    36   117   116    1
    37    52    53    1
    38    52    55    1
    39    94    93    1
    40    15    16    2
    41    15    18   am
    42    56    55    1
    43   110   112   ar
    44    58    59    1
    45    53    54    2
    46    25    26    1
    47    18    19    1
    48    10     9    1
    49    10    11    2
    50    78    77    1
    51    78    79    2
    52     9    12    1
    53    96    93    1
    54    96    97    1
    55   116   119    1
    56   116   115    1
    57   119   120    1
    58    93    92    1
    59    77    74    1
    60    60    59    2
    61    59    68   am
    62    20    19    1
    63    20    21    2
    64    26    27    1
    65    26    29    1
    66    19    22    1
    67    74    73    1
    68    74    75    1
    69    92    89   am
    70    97    99   ar
    71    97    98   ar
    72    99   101   ar
    73   121   120    1
    74   121   122    1
    75    73    70   am
    76    68    69    1
    77    22    23    1
    78    22    24    1
    79    27    31   am
    80    27    28    2
    81    29    30    1
    82    31    32    1
    83    76    75    2
    84    33    32    1
    85    33    34    2
    86    75    81   am
    87    98   100   ar
    88    70    71    2
    89    70    69    1
    90    87    88    1
    91   101   102   ar
    92    89    90    2
    93    89    88    1
    94    32    35    1
    95    69    72    1
    96   122   123    1
    97    35    36    1
    98    40    41    1
    99   139   140    1
   100   100   102   ar
   101    88    91    1
   102   142   141    2
   103   129   130    1
   104   141   140    1
   105   102   103    1
   106    81    82    1
   107   140   143    1
   108    36    37    1
   109   124   125    1
   110   130   131    1
   111   130   133    1
   112   125   126    1
   113   125   128    1
   114    41    42    1
   115    41    44    1
   116    42    43    2
   117   132   131    2
   118   136   138   ar
   119   136   134   ar
   120   127   126    2
   121    82    83    1
   122    82    85    1
   123   138   137   ar
   124    86    85    1
   125    83    84    2
   126   134   133    1
   127   134   135   ar
   128    37    39   am
   129    37    38    2
   130   143   144    1
   131    44    45    1
   132   137   135   ar
   133    45    46    1
   134    46    47    1
   135    47    48    2
   136    49    48    1
   137    48    50    1
