@<TRIPOS>MOLECULE
tmp/1yqzB01.pdb
 86 81 0 0 0
SMALL
GASTEIGER

@<TRIPOS>ATOM
      1  N          1.2910   14.5100   38.2150 N.3    13  ALA13      -0.1231
      2  CA         0.7800   15.8180   37.8120 C.3    13  ALA13       0.1694
      3  C          0.3640   15.7600   36.3350 C.2    13  ALA13       0.2592
      4  O         -0.6480   16.3320   35.9470 O.2    13  ALA13      -0.2718
      5  CB         1.8360   16.9040   38.0380 C.3    13  ALA13       0.0304
      6  N          1.1400   15.0570   35.5150 N.am   14  THR14      -0.1953
      7  CA         0.7950   14.9160   34.1050 C.3    14  THR14       0.1897
      8  C         -0.5540   14.2220   33.9670 C.2    14  THR14       0.2313
      9  O         -1.4060   14.6580   33.2050 O.2    14  THR14      -0.2863
     10  CB         1.8570   14.0860   33.3680 C.3    14  THR14       0.1794
     11  OG1        3.1340   14.7040   33.5430 O.3    14  THR14      -0.2208
     12  CG2        1.5520   14.0250   31.8520 C.3    14  THR14       0.0378
     13  N         -3.4530   16.4420   35.0180 N.3    17  SER17      -0.1202
     14  CA        -3.6760   17.4740   34.0030 C.3    17  SER17       0.2020
     15  C         -4.4070   16.9010   32.7850 C.2    17  SER17       0.2618
     16  O         -5.3330   17.5360   32.2480 O.2    17  SER17      -0.2717
     17  CB        -2.3380   18.0800   33.5820 C.3    17  SER17       0.2103
     18  OG        -2.5250   18.9980   32.5130 O.3    17  SER17      -0.2182
     19  N         -4.0010   15.7090   32.3480 N.am   18  GLN18      -0.1979
     20  CA        -4.6490   15.0730   31.1990 C.3    18  GLN18       0.1601
     21  C         -6.1080   14.7430   31.5230 C.2    18  GLN18       0.2287
     22  O         -6.9690   14.8410   30.6450 O.2    18  GLN18      -0.2864
     23  CB        -3.9120   13.7880   30.7770 C.3    18  GLN18       0.0394
     24  CG        -2.4810   14.0200   30.2350 C.3    18  GLN18       0.0908
     25  CD        -2.4510   14.7990   28.9340 C.2    18  GLN18       0.2608
     26  OE1       -3.1120   14.4330   27.9600 O.2    18  GLN18      -0.2717
     27  NE2       -1.6640   15.8680   28.9060 N.am   18  GLN18      -0.0878
     28  N         -8.1750   17.8500   31.1460 N.3    21  ARG21      -0.1245
     29  CA        -8.4340   18.2400   29.7480 C.3    21  ARG21       0.1563
     30  C         -9.7650   17.6270   29.2830 C.2    21  ARG21       0.2260
     31  O        -10.5120   18.2400   28.5180 O.2    21  ARG21      -0.2867
     32  CB        -7.3490   17.7150   28.7930 C.3    21  ARG21       0.0307
     33  CG        -5.9770   18.3240   28.9300 C.3    21  ARG21       0.0489
     34  CD        -5.0530   17.7340   27.8540 C.3    21  ARG21       0.2205
     35  NE        -5.4690   18.1170   26.5000 N.pl3  21  ARG21      -0.0865
     36  CZ        -5.1320   19.2620   25.9170 C.cat  21  ARG21       0.5346
     37  NH1       -4.3700   20.1350   26.5660 N.pl3  21  ARG21       0.1354
     38  NH2       -5.5580   19.5390   24.6900 N.pl3  21  ARG21       0.1354
     39  N          5.0180   24.5400   38.1490 N.3    61  TYR61      -0.1241
     40  CA         3.9670   25.1610   38.9390 C.3    61  TYR61       0.1605
     41  C          4.1870   25.0380   40.4290 C.2    61  TYR61       0.2264
     42  O          4.9750   24.2060   40.8960 O.2    61  TYR61      -0.2867
     43  CB         2.6280   24.4440   38.7270 C.3    61  TYR61       0.0534
     44  CG         2.0260   24.4820   37.3550 C.ar   61  TYR61      -0.0201
     45  CD1        2.2680   23.4660   36.4170 C.ar   61  TYR61      -0.0009
     46  CD2        1.1710   25.5150   37.0050 C.ar   61  TYR61      -0.0009
     47  CE1        1.6570   23.4940   35.1680 C.ar   61  TYR61       0.0417
     48  CE2        0.5680   25.5530   35.7760 C.ar   61  TYR61       0.0417
     49  CZ         0.7990   24.5550   34.8590 C.ar   61  TYR61       0.1957
     50  OH         0.1180   24.6360   33.6590 O.3    61  TYR61      -0.2866
     51  N         -4.9360   27.5570   37.5050 N.3    69  ARG69      -0.1231
     52  CA        -5.0230   27.2030   36.1040 C.3    69  ARG69       0.1694
     53  C         -5.9050   26.0040   35.7950 C.2    69  ARG69       0.2591
     54  O         -6.6620   26.0170   34.8270 O.2    69  ARG69      -0.2718
     55  CB        -3.6220   26.9310   35.5400 C.3    69  ARG69       0.0321
     56  CG        -3.6040   26.7610   34.0330 C.3    69  ARG69       0.0489
     57  CD        -2.2010   26.6920   33.4710 C.3    69  ARG69       0.2205
     58  NE        -2.1950   26.8150   32.0150 N.pl3  69  ARG69      -0.0865
     59  CZ        -2.8030   25.9750   31.1810 C.cat  69  ARG69       0.5346
     60  NH1       -3.4790   24.9310   31.6500 N.pl3  69  ARG69       0.1354
     61  NH2       -2.7360   26.1820   29.8700 N.pl3  69  ARG69       0.1354
     62  N         -5.8460   24.9750   36.6400 N.am   70  LYS70      -0.1980
     63  CA        -6.5610   23.7390   36.3440 C.3    70  LYS70       0.1596
     64  C         -7.5840   23.2500   37.3560 C.2    70  LYS70       0.2287
     65  O         -8.1990   22.2010   37.1430 O.2    70  LYS70      -0.2864
     66  CB        -5.5260   22.6320   36.1300 C.3    70  LYS70       0.0298
     67  CG        -4.4720   22.9460   35.0650 C.3    70  LYS70       0.0038
     68  CD        -3.4700   21.7830   34.9590 C.3    70  LYS70       0.0206
     69  CE        -2.3880   22.0250   33.8980 C.3    70  LYS70       0.1093
     70  NZ        -2.9360   21.9950   32.5160 N.3    70  LYS70      -0.1314
     71  N          4.7170    9.5900   30.9680 N.3   298  HIS298     -0.1241
     72  CA         3.7930   10.4270   30.2060 C.3   298  HIS298      0.1621
     73  C          2.7840    9.6240   29.3710 C.2   298  HIS298      0.2264
     74  O          1.6130   10.0140   29.2840 O.2   298  HIS298     -0.2867
     75  CB         4.5800   11.3650   29.2950 C.3   298  HIS298      0.0745
     76  CG         5.1240   12.5550   30.0080 C.ar  298  HIS298      0.0817
     77  ND1        4.7250   13.8400   29.7120 N.ar  298  HIS298     -0.2268
     78  CD2        6.0130   12.6570   31.0220 C.ar  298  HIS298      0.1154
     79  CE1        5.3520   14.6830   30.5160 C.ar  298  HIS298      0.1986
     80  NE2        6.1380   13.9920   31.3190 N.ar  298  HIS298     -0.2212
     81  N         -1.4280    9.5650   29.9480 N.3   302  SER302     -0.1217
     82  CA        -2.4700    9.7680   28.9400 C.3   302  SER302      0.1889
     83  C         -3.4510    8.6070   28.8610 C.2   302  SER302      0.2288
     84  O         -4.6440    8.8380   28.7700 O.2   302  SER302     -0.2866
     85  CB        -1.8530   10.0080   27.5590 C.3   302  SER302      0.2089
     86  OG        -1.3800   11.3390   27.4650 O.3   302  SER302     -0.2183
@<TRIPOS>BOND
     1    38    36    1
     2    36    35    2
     3    36    37    1
     4    35    34    1
     5    86    85    1
     6    85    82    1
     7    34    33    1
     8    26    25    2
     9    31    30    2
    10    84    83    2
    11    32    33    1
    12    32    29    1
    13    83    82    1
    14    27    25   am
    15    25    24    1
    16    82    81    1
    17    30    29    1
    18    74    73    2
    19    75    76    1
    20    75    72    1
    21    73    72    1
    22    77    76   ar
    23    77    79   ar
    24    29    28    1
    25    61    59    1
    26    76    78   ar
    27    72    71    1
    28    24    23    1
    29    79    80   ar
    30    22    21    2
    31    23    20    1
    32    78    80   ar
    33    59    60    1
    34    59    58    2
    35    20    21    1
    36    20    19    1
    37    12    10    1
    38    58    57    1
    39    16    15    2
    40    19    15   am
    41    18    17    1
    42    70    69    1
    43    15    14    1
    44     9     8    2
    45    10    11    1
    46    10     7    1
    47    57    56    1
    48    17    14    1
    49    50    49    1
    50    69    68    1
    51     8     7    1
    52    14    13    1
    53    56    55    1
    54     7     6    1
    55    54    53    2
    56    49    47   ar
    57    49    48   ar
    58    68    67    1
    59    67    66    1
    60    47    45   ar
    61     6     3   am
    62    55    52    1
    63    48    46   ar
    64    53    52    1
    65    53    62   am
    66     4     3    2
    67    52    51    1
    68    66    63    1
    69     3     2    1
    70    63    62    1
    71    63    64    1
    72    45    44   ar
    73    46    44   ar
    74    65    64    2
    75    44    43    1
    76     2     5    1
    77     2     1    1
    78    39    40    1
    79    43    40    1
    80    40    41    1
    81    41    42    2
