@<TRIPOS>MOLECULE
tmp/1yr3D00.pdb
 88 82 0 0 0
SMALL
GASTEIGER

@<TRIPOS>ATOM
      1  N         46.0690   -3.6340   51.8450 N.3   113  ALA113     -0.1231
      2  CA        44.9550   -4.4980   52.2110 C.3   113  ALA113      0.1694
      3  C         44.6220   -5.3300   50.9900 C.2   113  ALA113      0.2592
      4  O         44.5280   -4.8090   49.8830 O.2   113  ALA113     -0.2718
      5  CB        43.7560   -3.6680   52.6070 C.3   113  ALA113      0.0304
      6  N         44.4320   -6.6250   51.1800 N.am  114  ALA114     -0.1966
      7  CA        44.1470   -7.4860   50.0470 C.3   114  ALA114      0.1728
      8  C         43.1300   -8.5630   50.3610 C.2   114  ALA114      0.2616
      9  O         42.5960   -8.6410   51.4740 O.2   114  ALA114     -0.2715
     10  CB        45.4440   -8.1280   49.5660 C.3   114  ALA114      0.0334
     11  N         42.8660   -9.3890   49.3530 N.am  115  GLY115     -0.1955
     12  CA        41.9500  -10.5000   49.5070 C.3   115  GLY115      0.1869
     13  C         42.7740  -11.7740   49.4410 C.2   115  GLY115      0.2309
     14  O         43.8200  -11.7940   48.7950 O.2   115  GLY115     -0.2863
     15  N         35.5300   -4.9310   41.8190 N.3   192  PHE192     -0.1227
     16  CA        36.1960   -6.0810   42.4250 C.3   192  PHE192      0.1736
     17  C         36.2440   -7.2140   41.4220 C.2   192  PHE192      0.2595
     18  O         35.6040   -7.1290   40.3740 O.2   192  PHE192     -0.2718
     19  CB        35.4670   -6.5080   43.6920 C.3   192  PHE192      0.0547
     20  CG        35.7350   -5.6130   44.8560 C.ar  192  PHE192     -0.0202
     21  CD1       36.9670   -5.6380   45.4900 C.ar  192  PHE192     -0.0042
     22  CD2       34.7740   -4.7330   45.3030 C.ar  192  PHE192     -0.0042
     23  CE1       37.2390   -4.7980   46.5540 C.ar  192  PHE192     -0.0003
     24  CE2       35.0360   -3.8850   46.3690 C.ar  192  PHE192     -0.0003
     25  CZ        36.2700   -3.9160   46.9990 C.ar  192  PHE192     -0.0000
     26  N         37.0080   -8.2630   41.7250 N.am  193  GLU193     -0.1979
     27  CA        37.1400   -9.3920   40.8050 C.3   193  GLU193      0.1602
     28  C         35.8870  -10.2430   40.7340 C.2   193  GLU193      0.2287
     29  O         35.0690  -10.2520   41.6540 O.2   193  GLU193     -0.2864
     30  CB        38.2810  -10.3250   41.2140 C.3   193  GLU193      0.0415
     31  CG        39.6100   -9.6840   41.4430 C.3   193  GLU193      0.1163
     32  CD        39.5790   -8.7560   42.6270 C.2   193  GLU193      0.3649
     33  OE1       38.8860   -9.0740   43.6310 O.co2 193  GLU193     -0.2457
     34  OE2       40.2500   -7.7090   42.5530 O.co2 193  GLU193     -0.2457
     35  N         45.3240  -11.3700   46.1860 N.3   209  VAL209     -0.1231
     36  CA        44.9060  -10.4820   45.1030 C.3   209  VAL209      0.1692
     37  C         44.6270   -9.0960   45.6460 C.2   209  VAL209      0.2593
     38  O         43.9840   -8.9620   46.6770 O.2   209  VAL209     -0.2718
     39  CB        43.6220  -10.9850   44.4310 C.3   209  VAL209      0.0266
     40  CG1       42.5810  -11.2150   45.4680 C.3   209  VAL209      0.0020
     41  CG2       43.1210   -9.9720   43.4180 C.3   209  VAL209      0.0020
     42  N         45.1050   -8.0730   44.9470 N.am  210  GLY210     -0.1942
     43  CA        44.8910   -6.7110   45.3860 C.3   210  GLY210      0.2014
     44  C         44.9500   -5.7710   44.2080 C.2   210  GLY210      0.2638
     45  O         45.2780   -6.2040   43.1090 O.2   210  GLY210     -0.2714
     46  N         44.6440   -4.4910   44.4220 N.am  211  MET211     -0.1976
     47  CA        44.6670   -3.5190   43.3330 C.3   211  MET211      0.1605
     48  C         45.8780   -2.5840   43.3350 C.2   211  MET211      0.2287
     49  O         45.8550   -1.5610   42.6560 O.2   211  MET211     -0.2864
     50  CB        43.3900   -2.6810   43.3360 C.3   211  MET211      0.0413
     51  CG        42.1220   -3.4260   42.9590 C.3   211  MET211      0.0598
     52  SD        40.6240   -2.3720   43.0970 S.3   211  MET211     -0.1393
     53  CE        39.3380   -3.5930   43.1800 C.3   211  MET211      0.0692
     54  N         41.8230   -8.9230   54.2010 N.3   234  THR234     -0.1203
     55  CA        40.5990   -8.3770   54.7700 C.3   234  THR234      0.1994
     56  C         39.3600   -9.1740   54.4160 C.2   234  THR234      0.2617
     57  O         38.2490   -8.7800   54.7670 O.2   234  THR234     -0.2717
     58  CB        40.3660   -6.9160   54.3310 C.3   234  THR234      0.1784
     59  OG1       40.1600   -6.8620   52.9180 O.3   234  THR234     -0.2211
     60  CG2       41.5720   -6.0610   54.6930 C.3   234  THR234      0.0376
     61  N         39.5550  -10.3020   53.7390 N.am  235  ASN235     -0.1974
     62  CA        38.4440  -11.1450   53.3190 C.3   235  ASN235      0.1688
     63  C         38.9390  -12.1590   52.3120 C.2   235  ASN235      0.2292
     64  O         40.0470  -12.0400   51.8100 O.2   235  ASN235     -0.2864
     65  CB        37.4020  -10.3030   52.6160 C.3   235  ASN235      0.1181
     66  CG        37.9680   -9.6090   51.4050 C.2   235  ASN235      0.2629
     67  OD1       38.8470   -8.7520   51.5260 O.2   235  ASN235     -0.2716
     68  ND2       37.4900   -9.9850   50.2240 N.am  235  ASN235     -0.0877
     69  N         38.8400  -13.9210   48.6040 N.3   237  ALA237     -0.1245
     70  CA        38.5670  -13.3760   47.2810 C.3   237  ALA237      0.1562
     71  C         37.1360  -13.7130   46.9000 C.2   237  ALA237      0.2260
     72  O         36.5330  -14.6160   47.4770 O.2   237  ALA237     -0.2867
     73  CB        39.5130  -13.9560   46.2690 C.3   237  ALA237      0.0290
     74  N         31.5800   -8.2030   49.3450 N.3   245  LEU245     -0.1245
     75  CA        32.7240   -7.2960   49.2300 C.3   245  LEU245      0.1561
     76  C         32.3460   -5.8240   49.0620 C.2   245  LEU245      0.2260
     77  O         31.5130   -5.4610   48.2250 O.2   245  LEU245     -0.2867
     78  CB        33.6390   -7.7100   48.0640 C.3   245  LEU245      0.0270
     79  CG        34.3220   -9.0760   48.1480 C.3   245  LEU245      0.0019
     80  CD1       35.4480   -9.1370   47.1340 C.3   245  LEU245      0.0001
     81  CD2       34.8650   -9.2960   49.5580 C.3   245  LEU245      0.0001
     82  N         36.4730   -3.7230   53.7340 N.3   250  THR250     -0.1218
     83  CA        37.9270   -3.6780   53.7010 C.3   250  THR250      0.1862
     84  C         38.4900   -2.8620   54.8660 C.2   250  THR250      0.2287
     85  O         39.2780   -3.3760   55.6670 O.2   250  THR250     -0.2866
     86  CB        38.4130   -3.0660   52.3700 C.3   250  THR250      0.1770
     87  OG1       37.8900   -3.8360   51.2760 O.3   250  THR250     -0.2211
     88  CG2       39.9400   -3.0480   52.3060 C.3   250  THR250      0.0375
@<TRIPOS>BOND
     1    18    17    2
     2    28    27    1
     3    28    29    2
     4    27    30    1
     5    27    26    1
     6    30    31    1
     7    17    26   am
     8    17    16    1
     9    31    32    1
    10    15    16    1
    11    16    19    1
    12    34    32   ar
    13    32    33   ar
    14    49    48    2
    15    51    52    1
    16    51    50    1
    17    52    53    1
    18    45    44    2
    19    47    48    1
    20    47    50    1
    21    47    46    1
    22    41    39    1
    23    19    20    1
    24    44    46   am
    25    44    43    1
    26    39    36    1
    27    39    40    1
    28    20    22   ar
    29    20    21   ar
    30    42    43    1
    31    42    37   am
    32    36    37    1
    33    36    35    1
    34    22    24   ar
    35    21    23   ar
    36    37    38    2
    37    73    70    1
    38    24    25   ar
    39    23    25   ar
    40    71    70    1
    41    71    72    2
    42    80    79    1
    43    70    69    1
    44    78    79    1
    45    78    75    1
    46    79    81    1
    47    77    76    2
    48    14    13    2
    49    76    75    1
    50    75    74    1
    51    11    12    1
    52    11     8   am
    53    13    12    1
    54    10     7    1
    55     4     3    2
    56     7     8    1
    57     7     6    1
    58    68    66   am
    59     8     9    2
    60     3     6   am
    61     3     2    1
    62    87    86    1
    63    66    67    2
    64    66    65    1
    65    64    63    2
    66     1     2    1
    67     2     5    1
    68    88    86    1
    69    63    62    1
    70    86    83    1
    71    65    62    1
    72    59    58    1
    73    62    61    1
    74    83    82    1
    75    83    84    1
    76    61    56   am
    77    54    55    1
    78    58    60    1
    79    58    55    1
    80    56    57    2
    81    56    55    1
    82    84    85    2
