@<TRIPOS>MOLECULE
tmp/1yr8A00.pdb
 121 114 0 0 0
SMALL
GASTEIGER

@<TRIPOS>ATOM
      1  N        -12.6440   29.7900   31.8500 N.3    10  THR10      -0.1203
      2  CA       -13.0060   28.4650   32.3380 C.3    10  THR10       0.1994
      3  C        -12.5510   27.3160   31.4440 C.2    10  THR10       0.2618
      4  O        -12.5300   27.4240   30.2200 O.2    10  THR10      -0.2717
      5  CB       -14.5330   28.3280   32.5270 C.3    10  THR10       0.1784
      6  OG1      -14.8020   27.2620   33.4480 O.3    10  THR10      -0.2211
      7  CG2      -15.2010   28.0220   31.2030 C.3    10  THR10       0.0376
      8  N        -12.2020   26.2130   32.0910 N.am   11  ALA11      -0.1965
      9  CA       -11.9270   24.9400   31.4360 C.3    11  ALA11       0.1728
     10  C        -12.4940   24.8500   30.0320 C.2    11  ALA11       0.2617
     11  O        -13.7020   24.7350   29.8670 O.2    11  ALA11      -0.2715
     12  CB       -12.4780   23.8060   32.2970 C.3    11  ALA11       0.0334
     13  N        -11.6230   24.9160   29.0210 N.am   12  GLY12      -0.1940
     14  CA       -12.0350   24.8410   27.6250 C.3    12  GLY12       0.2014
     15  C        -12.1660   26.1590   26.8760 C.2    12  GLY12       0.2640
     16  O        -12.7750   26.2040   25.8000 O.2    12  GLY12      -0.2714
     17  N        -11.6090   27.2390   27.4270 N.am   13  SER13      -0.1935
     18  CA       -11.6190   28.5540   26.7510 C.3    13  SER13       0.2055
     19  C        -10.3900   28.8000   25.8820 C.2    13  SER13       0.2644
     20  O        -10.3330   29.7750   25.1480 O.2    13  SER13      -0.2714
     21  CB       -11.6970   29.6750   27.7770 C.3    13  SER13       0.2130
     22  OG       -10.5940   29.5840   28.6530 O.3    13  SER13      -0.2179
     23  N         -9.3950   27.9300   25.9900 N.am   14  GLY14      -0.1939
     24  CA        -8.1810   28.0700   25.2030 C.3    14  GLY14       0.2014
     25  C         -7.2900   29.2420   25.5840 C.2    14  GLY14       0.2639
     26  O         -6.6660   29.8470   24.7150 O.2    14  GLY14      -0.2714
     27  N         -7.2140   29.5520   26.8790 N.am   15  LYS15      -0.1963
     28  CA        -6.4720   30.7270   27.3250 C.3    15  LYS15       0.1728
     29  C         -5.0050   30.4560   27.6130 C.2    15  LYS15       0.2617
     30  O         -4.2100   31.3890   27.7210 O.2    15  LYS15      -0.2715
     31  CB        -7.1520   31.4450   28.5110 C.3    15  LYS15       0.0311
     32  CG        -7.3410   30.6110   29.7550 C.3    15  LYS15       0.0038
     33  CD        -6.7650   31.3190   30.9810 C.3    15  LYS15       0.0206
     34  CE        -6.8870   30.4640   32.2390 C.3    15  LYS15       0.1093
     35  NZ        -7.0740   29.0210   31.8980 N.3    15  LYS15      -0.1314
     36  N         -4.6450   29.1830   27.7170 N.am   16  THR16      -0.1937
     37  CA        -3.2420   28.7920   27.8510 C.3    16  THR16       0.2028
     38  C         -2.5750   28.8800   26.4980 C.2    16  THR16       0.2642
     39  O         -1.4180   29.3310   26.3920 O.2    16  THR16      -0.2714
     40  CB        -3.0920   27.4060   28.4690 C.3    16  THR16       0.1808
     41  OG1       -3.4590   27.4690   29.8560 O.3    16  THR16      -0.2208
     42  CG2       -1.6720   26.9150   28.3730 C.3    16  THR16       0.0379
     43  N         -3.3090   28.4820   25.4560 N.am   17  THR17      -0.1950
     44  CA        -2.8730   28.7000   24.0580 C.3    17  THR17       0.1897
     45  C         -2.8100   30.2120   23.6920 C.2    17  THR17       0.2313
     46  O         -1.9180   30.6620   22.9560 O.2    17  THR17      -0.2863
     47  CB        -3.8020   27.9620   23.0780 C.3    17  THR17       0.1794
     48  OG1       -3.7430   26.5470   23.3230 O.3    17  THR17      -0.2208
     49  CG2       -3.4180   28.2340   21.6530 C.3    17  THR17       0.0378
     50  N         -1.6870   27.1870   37.3850 N.3    38  ASP38      -0.1239
     51  CA        -2.5440   25.9860   37.3090 C.3    38  ASP38       0.1674
     52  C         -1.8210   24.6850   37.7010 C.2    38  ASP38       0.2266
     53  O         -0.8350   24.2830   37.0660 O.2    38  ASP38      -0.2867
     54  CB        -3.1270   25.8400   35.8980 C.3    38  ASP38       0.1410
     55  CG        -4.2260   24.7680   35.8160 C.2    38  ASP38       0.3668
     56  OD1       -4.3660   23.9810   36.7720 O.co2  38  ASP38      -0.2456
     57  OD2       -4.9570   24.7160   34.7950 O.co2  38  ASP38      -0.2456
     58  N         -2.8900   21.4320   34.8340 N.3    41  VAL41      -0.1245
     59  CA        -2.6800   21.4640   33.3900 C.3    41  VAL41       0.1561
     60  C         -1.4560   20.6140   33.0260 C.2    41  VAL41       0.2260
     61  O         -0.3970   20.7410   33.6480 O.2    41  VAL41      -0.2867
     62  CB        -2.5820   22.9340   32.8400 C.3    41  VAL41       0.0252
     63  CG1       -1.2730   23.6130   33.2560 C.3    41  VAL41       0.0019
     64  CG2       -2.7600   22.9720   31.3240 C.3    41  VAL41       0.0019
     65  N         -7.3880   26.4640   35.6730 N.3   106  GLY106     -0.1225
     66  CA        -8.4260   26.1120   34.6950 C.3   106  GLY106      0.1811
     67  C         -9.7990   26.0380   35.3300 C.2   106  GLY106      0.2280
     68  O        -10.8090   26.3830   34.7090 O.2   106  GLY106     -0.2866
     69  N        -12.5280   34.2200   22.7000 N.3   167  ASN167     -0.1225
     70  CA       -11.4100   33.5900   22.0460 C.3   167  ASN167      0.1785
     71  C        -11.9100   32.6410   20.9600 C.2   167  ASN167      0.2597
     72  O        -13.0760   32.2520   20.9720 O.2   167  ASN167     -0.2718
     73  CB       -10.5780   32.8380   23.0840 C.3   167  ASN167      0.1169
     74  CG        -9.2450   32.3750   22.5390 C.2   167  ASN167      0.2627
     75  OD1       -8.7300   31.3380   22.9500 O.2   167  ASN167     -0.2716
     76  ND2       -8.6850   33.1310   21.6040 N.am  167  ASN167     -0.0877
     77  N        -11.0410   32.2990   20.0120 N.am  168  LYS168     -0.1980
     78  CA       -11.3520   31.3380   18.9420 C.3   168  LYS168      0.1596
     79  C        -12.3980   31.8530   17.9600 C.2   168  LYS168      0.2287
     80  O        -13.1740   31.0720   17.4150 O.2   168  LYS168     -0.2864
     81  CB       -11.8000   29.9990   19.5270 C.3   168  LYS168      0.0298
     82  CG       -10.7960   29.3950   20.4760 C.3   168  LYS168      0.0038
     83  CD       -11.4580   28.5010   21.4740 C.3   168  LYS168      0.0206
     84  CE       -11.2930   27.0440   21.1140 C.3   168  LYS168      0.1093
     85  NZ       -11.7090   26.2120   22.2750 N.3   168  LYS168     -0.1314
     86  N        -11.8650   32.7980   15.1580 N.3   170  ASP170     -0.1225
     87  CA       -11.4970   32.3220   13.8300 C.3   170  ASP170      0.1805
     88  C        -12.3700   31.1240   13.4200 C.2   170  ASP170      0.2597
     89  O        -12.3960   30.7200   12.2500 O.2   170  ASP170     -0.2718
     90  CB       -10.0330   31.9070   13.8320 C.3   170  ASP170      0.1424
     91  CG        -9.7100   30.9630   14.9700 C.2   170  ASP170      0.3668
     92  OD1       -9.3580   31.4630   16.0610 O.co2 170  ASP170     -0.2456
     93  OD2       -9.8400   29.7290   14.7920 O.co2 170  ASP170     -0.2456
     94  N        -13.0660   30.5640   14.4040 N.am  171  LEU171     -0.1979
     95  CA       -13.9600   29.4230   14.2260 C.3   171  LEU171      0.1596
     96  C        -15.3730   29.9120   13.9470 C.2   171  LEU171      0.2287
     97  O        -16.2820   29.1180   13.6880 O.2   171  LEU171     -0.2864
     98  CB       -13.9760   28.5740   15.4930 C.3   171  LEU171      0.0297
     99  CG       -12.6230   27.9260   15.7330 C.3   171  LEU171      0.0022
    100  CD1      -12.6700   26.9160   16.8930 C.3   171  LEU171      0.0001
    101  CD2      -12.1730   27.2790   14.4250 C.3   171  LEU171      0.0001
    102  N         -7.9320   35.6530   18.8360 N.3   225  SER225     -0.1202
    103  CA        -7.6780   34.3200   18.2820 C.3   225  SER225      0.2020
    104  C         -6.2030   33.9260   18.3190 C.2   225  SER225      0.2619
    105  O         -5.4080   34.4710   17.5760 O.2   225  SER225     -0.2717
    106  CB        -8.1860   34.2160   16.8460 C.3   225  SER225      0.2103
    107  OG        -7.6800   33.0400   16.2590 O.3   225  SER225     -0.2182
    108  N         -5.8400   32.9700   19.1670 N.am  226  ALA226     -0.1965
    109  CA        -4.4650   32.4790   19.1950 C.3   226  ALA226      0.1728
    110  C         -4.0160   32.0460   17.8080 C.2   226  ALA226      0.2616
    111  O         -2.8530   32.1570   17.4720 O.2   226  ALA226     -0.2715
    112  CB        -4.3240   31.3020   20.1800 C.3   226  ALA226      0.0334
    113  N         -4.9520   31.5510   17.0040 N.am  227  LYS227     -0.1977
    114  CA        -4.6460   31.0120   15.6740 C.3   227  LYS227      0.1596
    115  C         -4.4250   32.0790   14.5920 C.2   227  LYS227      0.2287
    116  O         -3.5560   31.9030   13.7510 O.2   227  LYS227     -0.2864
    117  CB        -5.7270   30.0040   15.2730 C.3   227  LYS227      0.0298
    118  CG        -5.7000   29.4690   13.8510 C.3   227  LYS227      0.0038
    119  CD        -7.0130   28.6850   13.6270 C.3   227  LYS227      0.0206
    120  CE        -7.1300   28.1060   12.2400 C.3   227  LYS227      0.1093
    121  NZ        -6.3990   26.8110   12.0770 N.3   227  LYS227     -0.1314
@<TRIPOS>BOND
     1   121   120    1
     2   120   119    1
     3    89    88    2
     4    88    87    1
     5    88    94   am
     6   119   118    1
     7    97    96    2
     8   116   115    2
     9    87    90    1
    10    87    86    1
    11    90    91    1
    12   118   117    1
    13    96    95    1
    14    95    94    1
    15    95    98    1
    16   101    99    1
    17   115   114    1
    18    93    91   ar
    19    91    92   ar
    20   117   114    1
    21    98    99    1
    22   114   113    1
    23    99   100    1
    24   107   106    1
    25   106   103    1
    26   113   110   am
    27    80    79    2
    28   111   110    2
    29   105   104    2
    30   110   109    1
    31    79    78    1
    32   103   104    1
    33   103   102    1
    34   104   108   am
    35    78    81    1
    36    78    77    1
    37   108   109    1
    38   109   112    1
    39    81    82    1
    40    77    71   am
    41    82    83    1
    42    71    72    2
    43    71    70    1
    44    84    83    1
    45    84    85    1
    46    76    74   am
    47    49    47    1
    48    70    69    1
    49    70    73    1
    50    74    75    2
    51    74    73    1
    52    46    45    2
    53    47    48    1
    54    47    44    1
    55    45    44    1
    56    44    43    1
    57    26    25    2
    58    20    19    2
    59    24    25    1
    60    24    23    1
    61    43    38   am
    62    25    27   am
    63    16    15    2
    64    19    23   am
    65    19    18    1
    66    39    38    2
    67    38    37    1
    68    18    17    1
    69    18    21    1
    70    15    17   am
    71    15    14    1
    72    27    28    1
    73    28    29    1
    74    28    31    1
    75    29    36   am
    76    29    30    2
    77    14    13    1
    78    36    37    1
    79    21    22    1
    80    37    40    1
    81    42    40    1
    82    40    41    1
    83    31    32    1
    84    13    10   am
    85    32    33    1
    86    11    10    2
    87    10     9    1
    88     4     3    2
    89    33    34    1
    90     7     5    1
    91    64    62    1
    92     9     8    1
    93     9    12    1
    94     3     8   am
    95     3     2    1
    96     1     2    1
    97    35    34    1
    98     2     5    1
    99     5     6    1
   100    62    63    1
   101    62    59    1
   102    60    59    1
   103    60    61    2
   104    59    58    1
   105    66    67    1
   106    66    65    1
   107    68    67    2
   108    57    55   ar
   109    55    54    1
   110    55    56   ar
   111    54    51    1
   112    53    52    2
   113    51    50    1
   114    51    52    1
