@<TRIPOS>MOLECULE
tmp/1yraB00.pdb
 114 107 0 0 0
SMALL
GASTEIGER

@<TRIPOS>ATOM
      1  N         10.0210  -11.4120    8.9160 N.3    23  ALA23      -0.1231
      2  CA         8.6800  -11.6430    8.4040 C.3    23  ALA23       0.1694
      3  C          8.5130  -10.9710    7.0520 C.2    23  ALA23       0.2593
      4  O          8.8890   -9.7950    6.8710 O.2    23  ALA23      -0.2718
      5  CB         7.6410  -11.1230    9.3970 C.3    23  ALA23       0.0304
      6  N          7.9540  -11.7130    6.1020 N.am   24  GLY24      -0.1942
      7  CA         7.8810  -11.2420    4.7150 C.3    24  GLY24       0.2014
      8  C          9.0600  -11.5780    3.7920 C.2    24  GLY24       0.2640
      9  O          8.9640  -11.3670    2.5830 O.2    24  GLY24      -0.2714
     10  N         10.1740  -12.0990    4.3190 N.am   25  SER25      -0.1935
     11  CA        11.3350  -12.4320    3.4360 C.3    25  SER25       0.2055
     12  C         11.0910  -13.5820    2.4390 C.2    25  SER25       0.2644
     13  O         11.8130  -13.7230    1.4320 O.2    25  SER25      -0.2714
     14  CB        12.6440  -12.6560    4.2260 C.3    25  SER25       0.2130
     15  OG        12.5150  -13.6390    5.2500 O.3    25  SER25      -0.2179
     16  N         10.0690  -14.3920    2.7140 N.am   26  GLY26      -0.1939
     17  CA         9.7500  -15.5530    1.8800 C.3    26  GLY26       0.2014
     18  C         10.0200  -16.9090    2.5270 C.2    26  GLY26       0.2639
     19  O         10.2550  -17.8690    1.8360 O.2    26  GLY26      -0.2714
     20  N          9.9810  -17.0040    3.8510 N.am   27  LYS27      -0.1963
     21  CA        10.3600  -18.2440    4.5230 C.3    27  LYS27       0.1728
     22  C          9.4690  -19.3940    4.0910 C.2    27  LYS27       0.2617
     23  O          9.9540  -20.4950    3.7890 O.2    27  LYS27      -0.2715
     24  CB        10.3110  -18.1190    6.0570 C.3    27  LYS27       0.0311
     25  CG        11.4190  -17.2900    6.6790 C.3    27  LYS27       0.0038
     26  CD        11.2650  -17.2430    8.2090 C.3    27  LYS27       0.0206
     27  CE        10.0350  -16.4680    8.6430 C.3    27  LYS27       0.1093
     28  NZ        10.1650  -14.9740    8.4650 N.3    27  LYS27      -0.1314
     29  N          8.1650  -19.1250    4.0560 N.am   28  THR28      -0.1937
     30  CA         7.1790  -20.1770    3.8900 C.3    28  THR28       0.2028
     31  C          7.1250  -20.6560    2.4410 C.2    28  THR28       0.2642
     32  O          7.0930  -21.8530    2.1600 O.2    28  THR28      -0.2714
     33  CB         5.8080  -19.7200    4.4460 C.3    28  THR28       0.1808
     34  OG1        5.8550  -19.7750    5.8830 O.3    28  THR28      -0.2208
     35  CG2        4.6620  -20.6150    3.9350 C.3    28  THR28       0.0379
     36  N          7.1360  -19.7050    1.5260 N.am   29  THR29      -0.1950
     37  CA         7.1960  -19.9900    0.1120 C.3    29  THR29       0.1897
     38  C          8.4820  -20.7470   -0.2420 C.2    29  THR29       0.2313
     39  O          8.4330  -21.7150   -0.9710 O.2    29  THR29      -0.2863
     40  CB         7.1420  -18.6790   -0.6700 C.3    29  THR29       0.1794
     41  OG1        6.2380  -17.7790   -0.0100 O.3    29  THR29      -0.2208
     42  CG2        6.6670  -18.9120   -2.1100 C.3    29  THR29       0.0378
     43  N          5.6310  -22.0270   12.9550 N.3    50  ASP50      -0.1239
     44  CA         5.0290  -20.6720   12.9520 C.3    50  ASP50       0.1674
     45  C          3.5530  -20.7410   13.3420 C.2    50  ASP50       0.2266
     46  O          2.7260  -21.2470   12.5840 O.2    50  ASP50      -0.2867
     47  CB         5.1810  -20.0710   11.5570 C.3    50  ASP50       0.1410
     48  CG         4.7100  -18.6450   11.4650 C.2    50  ASP50       0.3668
     49  OD1        4.4120  -18.0350   12.5130 O.co2  50  ASP50      -0.2456
     50  OD2        4.6630  -18.1330   10.3130 O.co2  50  ASP50      -0.2456
     51  N          0.8460  -18.2890   10.8090 N.3    53  VAL53      -0.1245
     52  CA         0.7730  -18.3470    9.3660 C.3    53  VAL53       0.1561
     53  C         -0.6240  -18.8320    9.0510 C.2    53  VAL53       0.2260
     54  O         -1.1760  -19.6750    9.7670 O.2    53  VAL53      -0.2867
     55  CB         1.8530  -19.3130    8.8070 C.3    53  VAL53       0.0252
     56  CG1        1.5340  -20.7740    9.1770 C.3    53  VAL53       0.0019
     57  CG2        2.0720  -19.1180    7.2850 C.3    53  VAL53       0.0019
     58  N          7.2060  -16.6340   12.0080 N.3   118  GLY118     -0.1225
     59  CA         7.2290  -15.6030   10.9690 C.3   118  GLY118      0.1811
     60  C          8.1180  -14.4410   11.3460 C.2   118  GLY118      0.2280
     61  O          8.7900  -13.8510   10.4920 O.2   118  GLY118     -0.2866
     62  N         16.6290  -13.7810   -1.1310 N.3   179  ASN179     -0.1225
     63  CA        15.4890  -14.4300   -1.7420 C.3   179  ASN179      0.1785
     64  C         14.9150  -13.3970   -2.6690 C.2   179  ASN179      0.2597
     65  O         15.4060  -12.2630   -2.7100 O.2   179  ASN179     -0.2718
     66  CB        14.4660  -14.8880   -0.7050 C.3   179  ASN179      0.1169
     67  CG        13.3270  -15.6940   -1.3210 C.2   179  ASN179      0.2627
     68  OD1       12.2010  -15.6430   -0.8340 O.2   179  ASN179     -0.2716
     69  ND2       13.6080  -16.4220   -2.3960 N.am  179  ASN179     -0.0877
     70  N         13.9150  -13.7970   -3.4380 N.am  180  LYS180     -0.1980
     71  CA        13.2470  -12.8980   -4.3470 C.3   180  LYS180      0.1596
     72  C         14.1580  -12.3370   -5.4320 C.2   180  LYS180      0.2287
     73  O         13.8790  -11.2440   -5.9440 O.2   180  LYS180     -0.2864
     74  CB        12.6030  -11.7420   -3.5750 C.3   180  LYS180      0.0298
     75  CG        11.7470  -12.1620   -2.3880 C.3   180  LYS180      0.0038
     76  CD        10.9430  -10.9840   -1.8280 C.3   180  LYS180      0.0206
     77  CE        10.1820  -11.4110   -0.5750 C.3   180  LYS180      0.1093
     78  NZ         9.3810  -10.3150    0.0710 N.3   180  LYS180     -0.1314
     79  N         14.3310  -13.1180   -8.3920 N.3   182  ASP182     -0.1225
     80  CA        13.5980  -13.0650   -9.6550 C.3   182  ASP182      0.1805
     81  C         13.1160  -11.6440   -9.9640 C.2   182  ASP182      0.2597
     82  O         12.8620  -11.3050  -11.1180 O.2   182  ASP182     -0.2718
     83  CB        12.4050  -14.0270   -9.6250 C.3   182  ASP182      0.1424
     84  CG        11.4910  -13.8070   -8.4130 C.2   182  ASP182      0.3668
     85  OD1       11.9330  -14.0420   -7.2640 O.co2 182  ASP182     -0.2456
     86  OD2       10.3220  -13.3990   -8.6100 O.co2 182  ASP182     -0.2456
     87  N         13.0060  -10.8060   -8.9350 N.am  183  LEU183     -0.1979
     88  CA        12.4730   -9.4570   -9.1140 C.3   183  LEU183      0.1596
     89  C         13.5830   -8.5090   -9.4980 C.2   183  LEU183      0.2287
     90  O         13.3460   -7.3300   -9.6900 O.2   183  LEU183     -0.2864
     91  CB        11.7880   -8.9530   -7.8350 C.3   183  LEU183      0.0297
     92  CG        10.6410   -9.7800   -7.2520 C.3   183  LEU183      0.0022
     93  CD1       10.1950   -9.2120   -5.9130 C.3   183  LEU183      0.0001
     94  CD2        9.4590   -9.8800   -8.2310 C.3   183  LEU183      0.0001
     95  N         15.4260  -17.8530   -5.5610 N.3   237  SER237     -0.1202
     96  CA        14.0630  -17.4310   -5.8000 C.3   237  SER237      0.2020
     97  C         13.0960  -18.5380   -5.4200 C.2   237  SER237      0.2619
     98  O         13.0200  -19.5540   -6.1080 O.2   237  SER237     -0.2717
     99  CB        13.8400  -17.0560   -7.2430 C.3   237  SER237      0.2103
    100  OG        12.4580  -16.8060   -7.4250 O.3   237  SER237     -0.2182
    101  N         12.3730  -18.3340   -4.3220 N.am  238  ALA238     -0.1965
    102  CA        11.3110  -19.2350   -3.8910 C.3   238  ALA238      0.1728
    103  C         10.2490  -19.4210   -4.9680 C.2   238  ALA238      0.2616
    104  O          9.4630  -20.3680   -4.9300 O.2   238  ALA238     -0.2715
    105  CB        10.6560  -18.6960   -2.6130 C.3   238  ALA238      0.0334
    106  N         10.2130  -18.4960   -5.9180 N.am  239  LYS239     -0.1977
    107  CA         9.2360  -18.5420   -6.9920 C.3   239  LYS239      0.1596
    108  C          9.7460  -19.3290   -8.1960 C.2   239  LYS239      0.2287
    109  O          9.1090  -20.2920   -8.6070 O.2   239  LYS239     -0.2864
    110  CB         8.8040  -17.1230   -7.3920 C.3   239  LYS239      0.0298
    111  CG         7.4830  -17.0530   -8.1380 C.3   239  LYS239      0.0038
    112  CD         7.6590  -17.3760   -9.6320 C.3   239  LYS239      0.0206
    113  CE         6.3930  -17.0660  -10.4330 C.3   239  LYS239      0.1093
    114  NZ         5.2570  -17.9630  -10.0590 N.3   239  LYS239     -0.1314
@<TRIPOS>BOND
     1    82    81    2
     2   113   114    1
     3   113   112    1
     4    81    80    1
     5    81    87   am
     6    90    89    2
     7    80    83    1
     8    80    79    1
     9   112   111    1
    10    83    84    1
    11    89    88    1
    12    88    87    1
    13    88    91    1
    14    86    84   ar
    15   109   108    2
    16    84    85   ar
    17    94    92    1
    18   108   107    1
    19   111   110    1
    20    91    92    1
    21   100    99    1
    22   110   107    1
    23    92    93    1
    24    99    96    1
    25   107   106    1
    26    98    97    2
    27    73    72    2
    28   106   103   am
    29    96    95    1
    30    96    97    1
    31    72    71    1
    32    97   101   am
    33   103   104    2
    34   103   102    1
    35    71    74    1
    36    71    70    1
    37   101   102    1
    38   102   105    1
    39    74    75    1
    40    70    64   am
    41    65    64    2
    42    64    63    1
    43    69    67   am
    44    75    76    1
    45    42    40    1
    46    76    77    1
    47    63    62    1
    48    63    66    1
    49    67    68    2
    50    67    66    1
    51    39    38    2
    52    40    41    1
    53    40    37    1
    54    77    78    1
    55    38    37    1
    56    37    36    1
    57    13    12    2
    58    36    31   am
    59    19    18    2
    60    17    18    1
    61    17    16    1
    62    32    31    2
    63    12    16   am
    64    12    11    1
    65    31    30    1
    66    18    20   am
    67     9     8    2
    68    11    14    1
    69    11    10    1
    70    23    22    2
    71     8    10   am
    72     8     7    1
    73    20    21    1
    74    30    29    1
    75    30    33    1
    76    35    33    1
    77    29    22   am
    78    22    21    1
    79    14    15    1
    80    33    34    1
    81    21    24    1
    82     7     6    1
    83    24    25    1
    84     6     3   am
    85    25    26    1
    86     4     3    2
    87     3     2    1
    88    57    55    1
    89    26    27    1
    90     2     1    1
    91     2     5    1
    92    28    27    1
    93    55    56    1
    94    55    52    1
    95    53    52    1
    96    53    54    2
    97    52    51    1
    98    50    48   ar
    99    61    60    2
   100    59    60    1
   101    59    58    1
   102    48    47    1
   103    48    49   ar
   104    47    44    1
   105    46    45    2
   106    44    43    1
   107    44    45    1
