@<TRIPOS>MOLECULE
tmp/1yreB00.pdb
 212 208 0 0 0
SMALL
GASTEIGER

@<TRIPOS>ATOM
      1  N         91.8350   12.4740   -7.6760 N.3    36  ALA36      -0.1231
      2  CA        90.3940   12.4120   -7.4240 C.3    36  ALA36       0.1694
      3  C         90.0640   12.8320   -5.9610 C.2    36  ALA36       0.2591
      4  O         88.9560   13.3090   -5.6550 O.2    36  ALA36      -0.2718
      5  CB        89.8470   11.0020   -7.7460 C.3    36  ALA36       0.0304
      6  N         91.0560   12.6730   -5.0860 N.am   37  LEU37      -0.1980
      7  CA        90.8760   12.8430   -3.6410 C.3    37  LEU37       0.1596
      8  C         91.2350   14.2280   -3.1280 C.2    37  LEU37       0.2287
      9  O         91.2550   14.4540   -1.9130 O.2    37  LEU37      -0.2864
     10  CB        91.7170   11.8220   -2.9010 C.3    37  LEU37       0.0297
     11  CG        91.3360   10.3750   -3.1920 C.3    37  LEU37       0.0022
     12  CD1       92.3010    9.5080   -2.4360 C.3    37  LEU37       0.0001
     13  CD2       89.9110   10.0590   -2.8090 C.3    37  LEU37       0.0001
     14  N         89.9030   17.0430   -2.9250 N.3    39  TYR39      -0.1227
     15  CA        88.9900   17.8500   -2.1070 C.3    39  TYR39       0.1736
     16  C         88.8490   17.3490   -0.6610 C.2    39  TYR39       0.2595
     17  O         88.1050   17.9310    0.1710 O.2    39  TYR39      -0.2718
     18  CB        87.6470   18.0130   -2.8230 C.3    39  TYR39       0.0548
     19  CG        87.8360   18.6400   -4.1960 C.ar   39  TYR39      -0.0200
     20  CD1       88.2700   19.9570   -4.3290 C.ar   39  TYR39      -0.0009
     21  CD2       87.5920   17.9130   -5.3480 C.ar   39  TYR39      -0.0009
     22  CE1       88.4440   20.5350   -5.5730 C.ar   39  TYR39       0.0417
     23  CE2       87.7540   18.4790   -6.6090 C.ar   39  TYR39       0.0417
     24  CZ        88.1930   19.7850   -6.7160 C.ar   39  TYR39       0.1957
     25  OH        88.3760   20.3250   -7.9700 O.3    39  TYR39      -0.2866
     26  N         89.5910   16.2860   -0.3490 N.am   40  MET40      -0.1979
     27  CA        89.5260   15.7180    0.9840 C.3    40  MET40       0.1605
     28  C         90.8470   15.8580    1.7270 C.2    40  MET40       0.2287
     29  O         91.9260   15.6640    1.1540 O.2    40  MET40      -0.2864
     30  CB        89.0980   14.2300    0.9440 C.3    40  MET40       0.0413
     31  CG        87.8250   13.8900    0.1460 C.3    40  MET40       0.0598
     32  SD        87.6060   12.0840    0.0120 S.3    40  MET40      -0.1393
     33  CE        87.0630   11.7160    1.6920 C.3    40  MET40       0.0692
     34  N         79.4890   10.0230    5.5190 N.3    91  GLY91      -0.1210
     35  CA        80.4670   10.7910    4.7910 C.3    91  GLY91       0.1956
     36  C         81.8210   10.1650    4.7520 C.2    91  GLY91       0.2612
     37  O         81.9470    8.9600    5.0100 O.2    91  GLY91      -0.2717
     38  N         82.8330   10.9830    4.4540 N.am   92  TRP92      -0.1962
     39  CA        84.2310   10.5400    4.4650 C.3    92  TRP92       0.1771
     40  C         84.3090    9.3600    3.4970 C.2    92  TRP92       0.2620
     41  O         84.9180    8.3120    3.7730 O.2    92  TRP92      -0.2715
     42  CB        84.6540   10.1800    5.9060 C.3    92  TRP92       0.0590
     43  CG        84.5400   11.3470    6.8710 C.ar   92  TRP92       0.0006
     44  CD1       85.5160   12.2920    7.1400 C.ar   92  TRP92       0.0946
     45  CD2       83.3980   11.7370    7.6520 C.ar   92  TRP92       0.0152
     46  NE1       85.0610   13.2060    8.0610 N.ar   92  TRP92      -0.2442
     47  CE2       83.7640   12.8860    8.3880 C.ar   92  TRP92       0.0810
     48  CE3       82.1100   11.2170    7.8270 C.ar   92  TRP92       0.0012
     49  CZ2       82.8860   13.5070    9.2480 C.ar   92  TRP92       0.0191
     50  CZ3       81.2570   11.8440    8.6890 C.ar   92  TRP92       0.0001
     51  CH2       81.6150   12.9760    9.3480 C.ar   92  TRP92       0.0015
     52  N         83.5910    9.5280    2.3980 N.am   93  THR93      -0.1937
     53  CA        83.5040    8.5490    1.3830 C.3    93  THR93       0.2028
     54  C         84.4900    8.8090    0.2320 C.2    93  THR93       0.2642
     55  O         84.5420    9.8760   -0.3210 O.2    93  THR93      -0.2714
     56  CB        82.1050    8.4720    0.7850 C.3    93  THR93       0.1808
     57  OG1       81.1090    8.3520    1.8310 O.3    93  THR93      -0.2208
     58  CG2       82.0290    7.2080   -0.2070 C.3    93  THR93       0.0379
     59  N         85.2600    7.8090   -0.1260 N.am   94  TRP94      -0.1959
     60  CA        85.9420    7.8440   -1.4220 C.3    94  TRP94       0.1771
     61  C         85.8640    6.4410   -2.0440 C.2    94  TRP94       0.2619
     62  O         85.9340    5.4480   -1.3390 O.2    94  TRP94      -0.2715
     63  CB        87.3610    8.4810   -1.3510 C.3    94  TRP94       0.0590
     64  CG        88.3800    7.6650   -0.6400 C.ar   94  TRP94       0.0006
     65  CD1       88.7280    7.7430    0.6780 C.ar   94  TRP94       0.0946
     66  CD2       89.1840    6.5900   -1.2090 C.ar   94  TRP94       0.0152
     67  NE1       89.6920    6.7680    0.9700 N.ar   94  TRP94      -0.2442
     68  CE2       89.9680    6.0510   -0.1630 C.ar   94  TRP94       0.0810
     69  CE3       89.2950    6.0340   -2.4990 C.ar   94  TRP94       0.0012
     70  CZ2       90.8770    5.0230   -0.3710 C.ar   94  TRP94       0.0191
     71  CZ3       90.1750    4.9930   -2.7080 C.ar   94  TRP94       0.0001
     72  CH2       90.9630    4.5030   -1.6520 C.ar   94  TRP94       0.0015
     73  N         85.6070    6.3880   -3.3480 N.am   95  LEU95      -0.1977
     74  CA        85.7000    5.1610   -4.1160 C.3    95  LEU95       0.1596
     75  C         86.8260    5.2450   -5.1400 C.2    95  LEU95       0.2287
     76  O         87.1740    6.3410   -5.6190 O.2    95  LEU95      -0.2864
     77  CB        84.4020    4.9430   -4.8740 C.3    95  LEU95       0.0297
     78  CG        83.2180    4.8380   -3.9420 C.3    95  LEU95       0.0022
     79  CD1       81.9730    4.8680   -4.7680 C.3    95  LEU95       0.0001
     80  CD2       83.3650    3.5520   -3.0630 C.3    95  LEU95       0.0001
     81  N         85.1720    3.1940  -10.4070 N.3    99  GLN99      -0.1231
     82  CA        83.7600    3.0820  -10.0030 C.3    99  GLN99       0.1698
     83  C         83.0360    4.3910  -10.0870 C.2    99  GLN99       0.2592
     84  O         81.8840    4.4530   -9.7180 O.2    99  GLN99      -0.2718
     85  CB        83.5910    2.4740   -8.5930 C.3    99  GLN99       0.0381
     86  CG        83.8720    0.9690   -8.5370 C.3    99  GLN99       0.0905
     87  CD        82.7590    0.1260   -9.1730 C.2    99  GLN99       0.2608
     88  OE1       81.6240    0.6060   -9.3500 O.2    99  GLN99      -0.2717
     89  NE2       83.0900   -1.1350   -9.5520 N.am   99  GLN99      -0.0878
     90  N         83.6980    5.4450  -10.5750 N.am  100  HIS100     -0.1962
     91  CA        83.0050    6.7330  -10.6960 C.3   100  HIS100      0.1787
     92  C         81.9680    6.6510  -11.8140 C.2   100  HIS100      0.2621
     93  O         82.2820    6.2960  -12.9290 O.2   100  HIS100     -0.2715
     94  CB        83.9890    7.9240  -10.8340 C.3   100  HIS100      0.0785
     95  CG        84.8550    8.1260   -9.6160 C.ar  100  HIS100      0.0821
     96  ND1       85.9020    9.0390   -9.5720 N.ar  100  HIS100     -0.2267
     97  CD2       84.8670    7.4840   -8.4230 C.ar  100  HIS100      0.1154
     98  CE1       86.4980    8.9630   -8.3960 C.ar  100  HIS100      0.1986
     99  NE2       85.8980    8.0150   -7.6860 N.ar  100  HIS100     -0.2212
    100  N         80.7210    6.9290  -11.4760 N.am  101  GLY101     -0.1940
    101  CA        79.6410    6.9000  -12.4340 C.3   101  GLY101      0.2014
    102  C         79.0050    5.5350  -12.6200 C.2   101  GLY101      0.2640
    103  O         78.2320    5.3570  -13.5350 O.2   101  GLY101     -0.2714
    104  N         79.3000    4.5850  -11.7350 N.am  102  SER102     -0.1935
    105  CA        78.7510    3.2540  -11.8550 C.3   102  SER102      0.2055
    106  C         77.4430    3.0700  -11.1010 C.2   102  SER102      0.2643
    107  O         76.8390    2.0040  -11.2200 O.2   102  SER102     -0.2714
    108  CB        79.7610    2.2400  -11.3800 C.3   102  SER102      0.2130
    109  OG        79.7210    2.1410   -9.9660 O.3   102  SER102     -0.2179
    110  N         77.0220    4.0950  -10.3300 N.am  103  GLY103     -0.1954
    111  CA        75.8870    4.0010   -9.3960 C.3   103  GLY103      0.1869
    112  C         76.2410    3.3460   -8.0420 C.2   103  GLY103      0.2309
    113  O         75.3490    3.1290   -7.1830 O.2   103  GLY103     -0.2863
    114  N         78.3800    4.6240   -5.5880 N.3   105  ASN105     -0.1225
    115  CA        78.1050    5.6430   -4.5510 C.3   105  ASN105      0.1785
    116  C         76.6720    5.6190   -4.0470 C.2   105  ASN105      0.2597
    117  O         76.4690    5.4840   -2.8590 O.2   105  ASN105     -0.2718
    118  CB        78.4600    7.0880   -4.9780 C.3   105  ASN105      0.1169
    119  CG        78.2050    8.0920   -3.8410 C.2   105  ASN105      0.2627
    120  OD1       78.8800    8.0510   -2.7920 O.2   105  ASN105     -0.2716
    121  ND2       77.2060    8.9450   -4.0160 N.am  105  ASN105     -0.0877
    122  N         75.6880    5.7010   -4.9520 N.am  106  ARG106     -0.1979
    123  CA        74.2400    5.7060   -4.5800 C.3   106  ARG106      0.1597
    124  C         73.7690    4.4520   -3.8260 C.2   106  ARG106      0.2287
    125  O         72.9430    4.5270   -2.9130 O.2   106  ARG106     -0.2864
    126  CB        73.3440    5.8710   -5.8410 C.3   106  ARG106      0.0334
    127  CG        72.9720    7.3410   -6.2720 C.3   106  ARG106      0.0492
    128  CD        71.8090    7.3860   -7.3430 C.3   106  ARG106      0.2205
    129  NE        70.7650    8.3670   -6.9450 N.pl3 106  ARG106     -0.0865
    130  CZ        69.4440    8.1520   -7.0610 C.cat 106  ARG106      0.5346
    131  NH1       69.0470    6.9780   -7.5250 N.pl3 106  ARG106      0.1354
    132  NH2       68.5160    9.0680   -6.6670 N.pl3 106  ARG106      0.1354
    133  N         75.2580    4.7160   -0.0840 N.3   109  LYS109     -0.1245
    134  CA        74.3770    5.6050    0.7260 C.3   109  LYS109      0.1561
    135  C         72.9920    4.9830    0.9030 C.2   109  LYS109      0.2260
    136  O         72.4160    5.1230    1.9430 O.2   109  LYS109     -0.2867
    137  CB        74.2660    7.0160    0.0810 C.3   109  LYS109      0.0271
    138  CG        75.6080    7.6200   -0.3150 C.3   109  LYS109      0.0035
    139  CD        76.3540    8.2520    0.8970 C.3   109  LYS109      0.0206
    140  CE        77.8030    8.7550    0.6010 C.3   109  LYS109      0.1093
    141  NZ        77.9540   10.1790    0.0340 N.3   109  LYS109     -0.1314
    142  N         77.7060   16.3430    3.8880 N.3   128  SER128     -0.1202
    143  CA        78.4020   17.5740    3.6640 C.3   128  SER128      0.2020
    144  C         79.6490   17.3320    2.7600 C.2   128  SER128      0.2619
    145  O         80.1780   16.2140    2.6720 O.2   128  SER128     -0.2717
    146  CB        78.7810   18.2490    5.0170 C.3   128  SER128      0.2103
    147  OG        79.9210   17.6170    5.5450 O.3   128  SER128     -0.2182
    148  N         80.0610   18.3870    2.0610 N.am  129  THR129     -0.1952
    149  CA        81.2420   18.3370    1.1590 C.3   129  THR129      0.1897
    150  C         81.8430   19.7540    0.9200 C.2   129  THR129      0.2313
    151  O         81.2240   20.7620    1.2440 O.2   129  THR129     -0.2863
    152  CB        80.8520   17.6860   -0.2140 C.3   129  THR129      0.1794
    153  OG1       82.0490   17.3480   -0.9520 O.3   129  THR129     -0.2208
    154  CG2       79.9350   18.6160   -1.0320 C.3   129  THR129      0.0378
    155  N         83.7760   21.2040   -4.2710 N.3   133  ASN133     -0.1225
    156  CA        83.6510   19.8250   -4.7180 C.3   133  ASN133      0.1785
    157  C         82.3390   19.5880   -5.4710 C.2   133  ASN133      0.2597
    158  O         81.4340   18.9300   -4.9710 O.2   133  ASN133     -0.2718
    159  CB        83.9150   18.8470   -3.5430 C.3   133  ASN133      0.1169
    160  CG        84.0490   17.4330   -3.9810 C.2   133  ASN133      0.2627
    161  OD1       83.6560   17.0690   -5.0900 O.2   133  ASN133     -0.2716
    162  ND2       84.5440   16.5980   -3.0910 N.am  133  ASN133     -0.0877
    163  N         82.2440   20.1510   -6.6780 N.am  134  LEU134     -0.1966
    164  CA        81.0220   20.1330   -7.4840 C.3   134  LEU134      0.1728
    165  C         80.5190   18.7380   -7.7490 C.2   134  LEU134      0.2616
    166  O         79.3400   18.5600   -7.6980 O.2   134  LEU134     -0.2715
    167  CB        81.2070   20.8830   -8.8180 C.3   134  LEU134      0.0311
    168  CG        81.5840   22.3800   -8.8000 C.3   134  LEU134      0.0022
    169  CD1       81.6600   23.0520  -10.2010 C.3   134  LEU134      0.0001
    170  CD2       80.5870   23.1080   -7.9610 C.3   134  LEU134      0.0001
    171  N         81.4000   17.7620   -7.9960 N.am  135  ARG135     -0.1963
    172  CA        80.9510   16.4030   -8.3550 C.3   135  ARG135      0.1729
    173  C         80.1980   15.7610   -7.1690 C.2   135  ARG135      0.2616
    174  O         79.1940   15.0950   -7.3660 O.2   135  ARG135     -0.2715
    175  CB        82.1030   15.4640   -8.7750 C.3   135  ARG135      0.0348
    176  CG        81.6030   14.0050   -9.0500 C.3   135  ARG135      0.0492
    177  CD        82.6490   13.0140   -9.7140 C.3   135  ARG135      0.2205
    178  NE        81.9180   11.8210  -10.2250 N.pl3 135  ARG135     -0.0865
    179  CZ        81.7190   11.4730  -11.5190 C.cat 135  ARG135      0.5346
    180  NH1       82.2470   12.1660  -12.5270 N.pl3 135  ARG135      0.1354
    181  NH2       80.9970   10.3890  -11.8180 N.pl3 135  ARG135      0.1354
    182  N         80.6900   16.0020   -5.9460 N.am  136  ALA136     -0.1977
    183  CA        80.1160   15.4490   -4.7450 C.3   136  ALA136      0.1597
    184  C         78.8160   16.1320   -4.4900 C.2   136  ALA136      0.2287
    185  O         77.8790   15.4760   -4.0160 O.2   136  ALA136     -0.2864
    186  CB        81.0810   15.6100   -3.5490 C.3   136  ALA136      0.0319
    187  N         76.8030   17.3110   -6.7280 N.3   138  GLY138     -0.1210
    188  CA        75.9320   16.5890   -7.6420 C.3   138  GLY138      0.1956
    189  C         75.4210   15.2600   -7.0920 C.2   138  GLY138      0.2612
    190  O         74.2570   14.9730   -7.1520 O.2   138  GLY138     -0.2717
    191  N         76.2760   14.4270   -6.5690 N.am  139  ALA139     -0.1965
    192  CA        75.8060   13.1380   -6.0820 C.3   139  ALA139      0.1728
    193  C         74.8820   13.3170   -4.8740 C.2   139  ALA139      0.2616
    194  O         73.9500   12.5310   -4.6960 O.2   139  ALA139     -0.2715
    195  CB        77.0040   12.2790   -5.6750 C.3   139  ALA139      0.0334
    196  N         75.2180   14.2860   -3.9980 N.am  140  ILE140     -0.1977
    197  CA        74.3730   14.5870   -2.8540 C.3   140  ILE140      0.1596
    198  C         72.9990   15.0680   -3.3020 C.2   140  ILE140      0.2287
    199  O         72.0200   14.6140   -2.7680 O.2   140  ILE140     -0.2864
    200  CB        75.0180   15.5840   -1.8130 C.3   140  ILE140      0.0276
    201  CG1       76.2550   14.9700   -1.1510 C.3   140  ILE140      0.0022
    202  CG2       74.0020   15.9540   -0.6580 C.3   140  ILE140      0.0022
    203  CD1       77.0860   16.0160   -0.3470 C.3   140  ILE140      0.0001
    204  N         71.4910   14.5300   -6.1750 N.3   142  LYS142     -0.1245
    205  CA        70.8870   13.3340   -6.7230 C.3   142  LYS142      0.1561
    206  C         70.2690   12.4020   -5.6670 C.2   142  LYS142      0.2260
    207  O         69.2170   11.8150   -5.9190 O.2   142  LYS142     -0.2867
    208  CB        71.9070   12.5740   -7.5860 C.3   142  LYS142      0.0271
    209  CG        71.8580   12.8980   -9.0730 C.3   142  LYS142      0.0035
    210  CD        71.8820   11.5880   -9.9520 C.3   142  LYS142      0.0206
    211  CE        70.4200   11.0020  -10.2180 C.3   142  LYS142      0.1093
    212  NZ        70.3700    9.4950  -10.4730 N.3   142  LYS142     -0.1314
@<TRIPOS>BOND
     1   103   102    2
     2    93    92    2
     3   102   101    1
     4   102   104   am
     5   180   179    1
     6   101   100    1
     7   105   104    1
     8   105   108    1
     9   105   106    1
    10   181   179    1
    11    92   100   am
    12    92    91    1
    13   179   178    2
    14   108   109    1
    15   107   106    2
    16   106   110   am
    17    94    91    1
    18    94    95    1
    19    91    90    1
    20    90    83   am
    21   212   211    1
    22    81    82    1
    23   110   111    1
    24   178   177    1
    25   211   210    1
    26   169   168    1
    27    83    82    1
    28    83    84    2
    29    82    85    1
    30   210   209    1
    31   177   176    1
    32    95    96   ar
    33    95    97   ar
    34    96    98   ar
    35    89    87   am
    36   111   112    1
    37    88    87    2
    38    87    86    1
    39   209   208    1
    40   176   175    1
    41   167   168    1
    42   167   164    1
    43   168   170    1
    44   175   172    1
    45    85    86    1
    46    97    99   ar
    47    98    99   ar
    48   172   171    1
    49   172   173    1
    50   112   113    2
    51   171   165   am
    52    25    24    1
    53   165   166    2
    54   165   164    1
    55     5     2    1
    56     1     2    1
    57   188   189    1
    58   188   187    1
    59   208   205    1
    60   131   130    1
    61   164   163    1
    62     2     3    1
    63   174   173    2
    64   128   129    1
    65   128   127    1
    66   173   182   am
    67   190   189    2
    68   189   191   am
    69   130   129    2
    70   130   132    1
    71   205   204    1
    72   205   206    1
    73    24    23   ar
    74    24    22   ar
    75   163   157   am
    76    23    21   ar
    77   191   192    1
    78   127   126    1
    79   192   195    1
    80   192   193    1
    81     3     4    2
    82     3     6   am
    83   182   183    1
    84   207   206    2
    85   126   123    1
    86    76    75    2
    87   114   115    1
    88    22    20   ar
    89   157   158    2
    90   157   156    1
    91    21    19   ar
    92    75    74    1
    93   161   160    2
    94     6     7    1
    95   118   115    1
    96   118   119    1
    97   122   123    1
    98   122   116   am
    99   193   194    2
   100   193   196   am
   101    77    74    1
   102    77    78    1
   103    79    78    1
   104   183   184    1
   105   183   186    1
   106   156   155    1
   107   156   159    1
   108   123   124    1
   109   115   116    1
   110   184   185    2
   111    20    19   ar
   112    19    18    1
   113    74    73    1
   114   116   117    2
   115   121   119   am
   116   196   197    1
   117   160   159    1
   118   160   162   am
   119    78    80    1
   120   119   120    2
   121   124   125    2
   122     7     8    1
   123     7    10    1
   124    73    61   am
   125   198   197    1
   126   198   199    2
   127    11    10    1
   128    11    13    1
   129    11    12    1
   130     8     9    2
   131    14    15    1
   132   197   200    1
   133    18    15    1
   134    71    69   ar
   135    71    72   ar
   136    69    66   ar
   137    15    16    1
   138    61    60    1
   139    61    62    2
   140   200   201    1
   141   200   202    1
   142    72    70   ar
   143    60    63    1
   144    60    59    1
   145    63    64    1
   146    66    64   ar
   147    66    68   ar
   148   201   203    1
   149   154   152    1
   150   153   152    1
   151    16    26   am
   152    16    17    2
   153    64    65   ar
   154    70    68   ar
   155    26    27    1
   156    55    54    2
   157   138   137    1
   158   138   139    1
   159   152   149    1
   160    58    56    1
   161    68    67   ar
   162    59    54   am
   163   133   134    1
   164    32    31    1
   165    32    33    1
   166   141   140    1
   167   137   134    1
   168    31    30    1
   169    54    53    1
   170   140   139    1
   171    65    67   ar
   172   134   135    1
   173    56    53    1
   174    56    57    1
   175   135   136    2
   176   150   149    1
   177   150   151    2
   178    30    27    1
   179    27    28    1
   180    29    28    2
   181   149   148    1
   182    53    52    1
   183   148   144   am
   184    52    40   am
   185   145   144    2
   186   144   143    1
   187    40    41    2
   188    40    39    1
   189   143   142    1
   190   143   146    1
   191    38    39    1
   192    38    36   am
   193    39    42    1
   194    36    35    1
   195    36    37    2
   196    35    34    1
   197   146   147    1
   198    42    43    1
   199    43    44   ar
   200    43    45   ar
   201    44    46   ar
   202    45    48   ar
   203    45    47   ar
   204    48    50   ar
   205    46    47   ar
   206    47    49   ar
   207    50    51   ar
   208    49    51   ar
