@<TRIPOS>MOLECULE
tmp/1yrhF01.pdb
 111 108 0 0 0
SMALL
GASTEIGER

@<TRIPOS>ATOM
      1  N         33.1720   21.3910   96.3000 N.3    12  SER12      -0.1202
      2  CA        32.4550   22.2320   97.2410 C.3    12  SER12       0.2020
      3  C         33.4250   23.1910   97.9050 C.2    12  SER12       0.2619
      4  O         34.6090   22.8880   98.0400 O.2    12  SER12      -0.2717
      5  CB        31.7840   21.3820   98.3070 C.3    12  SER12       0.2103
      6  OG        31.0360   22.1980   99.1940 O.3    12  SER12      -0.2182
      7  N         32.9140   24.3460   98.3110 N.am   13  SER13      -0.1937
      8  CA        33.6680   25.2890   99.1280 C.3    13  SER13       0.2055
      9  C         33.2050   25.2660  100.5890 C.2    13  SER13       0.2644
     10  O         34.0330   25.2600  101.4980 O.2    13  SER13      -0.2714
     11  CB        33.5280   26.6990   98.5590 C.3    13  SER13       0.2130
     12  OG        34.1280   26.7810   97.2790 O.3    13  SER13      -0.2179
     13  N         31.8830   25.2340  100.7990 N.am   14  THR14      -0.1936
     14  CA        31.2880   25.4540  102.1250 C.3    14  THR14       0.2028
     15  C         30.1900   24.4640  102.5660 C.2    14  THR14       0.2643
     16  O         29.4420   24.7560  103.5110 O.2    14  THR14      -0.2714
     17  CB        30.7010   26.8900  102.2360 C.3    14  THR14       0.1808
     18  OG1       29.4790   26.9850  101.4950 O.3    14  THR14      -0.2208
     19  CG2       31.6950   27.9310  101.7170 C.3    14  THR14       0.0379
     20  N         30.0790   23.3110  101.9050 N.am   15  GLY15      -0.1939
     21  CA        29.2500   22.2310  102.4370 C.3    15  GLY15       0.2014
     22  C         28.2360   21.5690  101.5200 C.2    15  GLY15       0.2640
     23  O         28.3000   20.3530  101.3180 O.2    15  GLY15      -0.2714
     24  N         27.2750   22.3370  100.9940 N.am   16  THR16      -0.1936
     25  CA        26.1510   21.7590  100.2240 C.3    16  THR16       0.2028
     26  C         26.6400   20.8550   99.1010 C.2    16  THR16       0.2642
     27  O         26.0530   19.7970   98.8640 O.2    16  THR16      -0.2714
     28  CB        25.2650   22.8210   99.5740 C.3    16  THR16       0.1808
     29  OG1       26.0980   23.7130   98.8280 O.3    16  THR16      -0.2208
     30  CG2       24.4650   23.5820  100.6210 C.3    16  THR16       0.0379
     31  N         27.6960   21.2700   98.4030 N.am   17  GLY17      -0.1954
     32  CA        28.2900   20.4230   97.3670 C.3    17  GLY17       0.1869
     33  C         28.7930   19.1010   97.9230 C.2    17  GLY17       0.2309
     34  O         28.6510   18.0550   97.3080 O.2    17  GLY17      -0.2863
     35  N         29.2950   23.6270   92.3490 N.3    82  PRO82      -0.2102
     36  CA        28.4220   24.7740   92.5310 C.3    82  PRO82       0.1504
     37  C         28.5120   25.6840   91.2990 C.2    82  PRO82       0.2576
     38  O         29.4310   25.5310   90.4750 O.2    82  PRO82      -0.2718
     39  CB        28.9690   25.4540   93.7970 C.3    82  PRO82       0.0282
     40  CG        30.3760   25.0270   93.8820 C.3    82  PRO82       0.0208
     41  CD        30.4520   23.6600   93.2580 C.3    82  PRO82       0.0893
     42  N         27.5470   26.5920   91.1680 N.am   83  THR83      -0.1939
     43  CA        27.5050   27.5060   90.0390 C.3    83  THR83       0.2028
     44  C         28.4570   28.6560   90.2810 C.2    83  THR83       0.2642
     45  O         28.7910   28.9940   91.4270 O.2    83  THR83      -0.2714
     46  CB        26.1260   28.1390   89.8490 C.3    83  THR83       0.1808
     47  OG1       25.9080   29.1190   90.8780 O.3    83  THR83      -0.2208
     48  CG2       25.0200   27.0860   89.8970 C.3    83  THR83       0.0379
     49  N         28.8550   29.2790   89.1860 N.am   84  ARG84      -0.1963
     50  CA        29.7320   30.4280   89.2350 C.3    84  ARG84       0.1729
     51  C         29.3440   31.3300   88.0620 C.2    84  ARG84       0.2616
     52  O         30.0220   31.3560   87.0410 O.2    84  ARG84      -0.2715
     53  CB        31.1870   29.9600   89.1440 C.3    84  ARG84       0.0348
     54  CG        32.1400   30.7230   90.0380 C.3    84  ARG84       0.0492
     55  CD        32.6350   29.8920   91.2350 C.3    84  ARG84       0.2205
     56  NE        31.6240   29.7140   92.2900 N.pl3  84  ARG84      -0.0865
     57  CZ        31.8320   29.0750   93.4480 C.cat  84  ARG84       0.5346
     58  NH1       33.0170   28.5330   93.7340 N.pl3  84  ARG84       0.1354
     59  NH2       30.8430   28.9760   94.3300 N.pl3  84  ARG84       0.1354
     60  N         28.2350   32.0530   88.2180 N.am   85  PHE85      -0.1960
     61  CA        27.5950   32.7970   87.1190 C.3    85  PHE85       0.1771
     62  C         27.0370   31.8170   86.0940 C.2    85  PHE85       0.2620
     63  O         27.2160   31.9840   84.8880 O.2    85  PHE85      -0.2715
     64  CB        28.5500   33.7910   86.4500 C.3    85  PHE85       0.0574
     65  CG        29.3170   34.6280   87.4140 C.ar   85  PHE85      -0.0200
     66  CD1       28.6690   35.5520   88.2160 C.ar   85  PHE85      -0.0042
     67  CD2       30.6810   34.4860   87.5320 C.ar   85  PHE85      -0.0042
     68  CE1       29.3730   36.3280   89.1260 C.ar   85  PHE85      -0.0003
     69  CE2       31.3930   35.2490   88.4400 C.ar   85  PHE85      -0.0003
     70  CZ        30.7350   36.1770   89.2420 C.ar   85  PHE85      -0.0000
     71  N         26.3660   30.7850   86.6000 N.am   86  GLY86      -0.1954
     72  CA        25.7440   29.7680   85.7620 C.3    86  GLY86       0.1869
     73  C         26.7310   28.8330   85.0830 C.2    86  GLY86       0.2309
     74  O         26.3550   28.0960   84.1740 O.2    86  GLY86      -0.2863
     75  N         24.6950   23.4410   92.3960 N.3   116  SER116     -0.1202
     76  CA        24.3580   24.1720   93.6040 C.3   116  SER116      0.2020
     77  C         24.4480   25.6650   93.3490 C.2   116  SER116      0.2619
     78  O         25.5050   26.1710   92.9890 O.2   116  SER116     -0.2717
     79  CB        25.3250   23.8020   94.7270 C.3   116  SER116      0.2103
     80  OG        24.9800   24.4670   95.9270 O.3   116  SER116     -0.2182
     81  N         23.3360   26.3650   93.5450 N.am  117  ALA117     -0.1965
     82  CA        23.3170   27.8250   93.4710 C.3   117  ALA117      0.1728
     83  C         22.6660   28.4050   94.7270 C.2   117  ALA117      0.2616
     84  O         21.9090   27.7160   95.4190 O.2   117  ALA117     -0.2715
     85  CB        22.5580   28.2710   92.2360 C.3   117  ALA117      0.0334
     86  N         22.9590   29.6740   95.0070 N.am  118  GLN118     -0.1963
     87  CA        22.3270   30.4030   96.1250 C.3   118  GLN118      0.1733
     88  C         20.9010   30.8430   95.8180 C.2   118  GLN118      0.2616
     89  O         20.0360   30.8170   96.6830 O.2   118  GLN118     -0.2715
     90  CB        23.1430   31.6390   96.4940 C.3   118  GLN118      0.0408
     91  CG        23.1080   31.9740   97.9700 C.3   118  GLN118      0.0908
     92  CD        24.4020   32.6060   98.4250 C.2   118  GLN118      0.2608
     93  OE1       24.7880   33.6640   97.9260 O.2   118  GLN118     -0.2717
     94  NE2       25.0920   31.9580   99.3680 N.am  118  GLN118     -0.0878
     95  N         20.6830   31.2780   94.5840 N.am  119  ASN119     -0.1972
     96  CA        19.3430   31.5790   94.0760 C.3   119  ASN119      0.1688
     97  C         18.6760   30.3700   93.4240 C.2   119  ASN119      0.2292
     98  O         19.3320   29.3870   93.0770 O.2   119  ASN119     -0.2864
     99  CB        19.4120   32.7220   93.0750 C.3   119  ASN119      0.1181
    100  CG        19.8490   34.0050   93.7120 C.2   119  ASN119      0.2629
    101  OD1       19.1810   34.5160   94.6000 O.2   119  ASN119     -0.2716
    102  ND2       20.9750   34.5370   93.2660 N.am  119  ASN119     -0.0877
    103  N         19.0690   30.9170   89.5710 N.3   122  GLY122     -0.1225
    104  CA        20.3760   31.5180   89.3340 C.3   122  GLY122      0.1811
    105  C         21.4410   30.5430   88.8740 C.2   122  GLY122      0.2280
    106  O         22.4900   30.4220   89.5150 O.2   122  GLY122     -0.2866
    107  N         21.4810   26.5400   98.0150 N.3   164  ALA164     -0.1245
    108  CA        22.3560   26.5500   99.1850 C.3   164  ALA164      0.1562
    109  C         22.0780   27.7520  100.0940 C.2   164  ALA164      0.2260
    110  O         22.1410   28.8990   99.6520 O.2   164  ALA164     -0.2867
    111  CB        23.8010   26.5480   98.7480 C.3   164  ALA164      0.0290
@<TRIPOS>BOND
     1    74    73    2
     2    63    62    2
     3    73    72    1
     4    72    71    1
     5    62    71   am
     6    62    61    1
     7    64    61    1
     8    64    65    1
     9    52    51    2
    10    61    60    1
    11    65    67   ar
    12    65    66   ar
    13    67    69   ar
    14    51    60   am
    15    51    50    1
    16    66    68   ar
    17    69    70   ar
    18   105   104    1
    19   105   106    2
    20    68    70   ar
    21    53    50    1
    22    53    54    1
    23    49    50    1
    24    49    44   am
    25   104   103    1
    26    46    48    1
    27    46    43    1
    28    46    47    1
    29    54    55    1
    30    43    44    1
    31    43    42    1
    32    44    45    2
    33    38    37    2
    34    42    37   am
    35    55    56    1
    36    37    36    1
    37    85    82    1
    38    56    57    2
    39    35    36    1
    40    35    41    1
    41    75    76    1
    42    36    39    1
    43    78    77    2
    44    99   100    1
    45    99    96    1
    46    98    97    2
    47    41    40    1
    48   102   100   am
    49    77    81   am
    50    77    76    1
    51    97    96    1
    52    57    58    1
    53    57    59    1
    54    82    81    1
    55    82    83    1
    56    76    79    1
    57   100   101    2
    58    39    40    1
    59    96    95    1
    60    95    88   am
    61    79    80    1
    62    83    86   am
    63    83    84    2
    64    86    87    1
    65    88    87    1
    66    88    89    2
    67    87    90    1
    68     1     2    1
    69    90    91    1
    70     2     3    1
    71     2     5    1
    72    12    11    1
    73    34    33    2
    74    32    33    1
    75    32    31    1
    76     3     4    2
    77     3     7   am
    78    93    92    2
    79    91    92    1
    80   107   108    1
    81     5     6    1
    82     7     8    1
    83    31    26   am
    84    92    94   am
    85    11     8    1
    86   111   108    1
    87    29    28    1
    88    27    26    2
    89    26    25    1
    90     8     9    1
    91   108   109    1
    92    28    25    1
    93    28    30    1
    94   110   109    2
    95    25    24    1
    96     9    13   am
    97     9    10    2
    98    13    14    1
    99    24    22   am
   100    23    22    2
   101    18    17    1
   102    22    21    1
   103    19    17    1
   104    20    21    1
   105    20    15   am
   106    14    17    1
   107    14    15    1
   108    15    16    2
