@<TRIPOS>MOLECULE
tmp/1yroA00.pdb
 132 130 0 0 0
SMALL
GASTEIGER

@<TRIPOS>ATOM
      1  N          3.5450   -5.2920   12.0410 N.3    33  THR33      -0.1218
      2  CA         3.4600   -6.7370   11.9810 C.3    33  THR33       0.1862
      3  C          4.6490   -7.4450   12.6420 C.2    33  THR33       0.2287
      4  O          4.4670   -8.3920   13.4020 O.2    33  THR33      -0.2866
      5  CB         3.3080   -7.1670   10.5060 C.3    33  THR33       0.1770
      6  OG1        2.0660   -6.6380    9.9970 O.3    33  THR33      -0.2211
      7  CG2        3.3460   -8.6950   10.3670 C.3    33  THR33       0.0375
      8  N          0.1270  -17.7990   17.0770 N.3    44  ASP44      -0.1239
      9  CA        -1.2290  -17.3400   16.8300 C.3    44  ASP44       0.1674
     10  C         -2.1440  -18.5670   16.9000 C.2    44  ASP44       0.2266
     11  O         -2.2500  -19.3290   15.9270 O.2    44  ASP44      -0.2867
     12  CB        -1.3140  -16.7140   15.4460 C.3    44  ASP44       0.1410
     13  CG        -2.6150  -15.9840   15.2160 C.2    44  ASP44       0.3668
     14  OD1       -3.6860  -16.6130   15.3540 O.co2  44  ASP44      -0.2456
     15  OD2       -2.5670  -14.7760   14.8890 O.co2  44  ASP44      -0.2456
     16  N          3.8430  -17.7710   13.1990 N.3    49  GLU49      -0.1245
     17  CA         4.0930  -16.8300   12.1000 C.3    49  GLU49       0.1567
     18  C          5.5440  -16.3700   12.0940 C.2    49  GLU49       0.2260
     19  O          6.1330  -16.0510   13.1460 O.2    49  GLU49      -0.2867
     20  CB         3.1080  -15.6390   12.1870 C.3    49  GLU49       0.0388
     21  CG         1.6460  -16.1060   11.9670 C.3    49  GLU49       0.1160
     22  CD         0.5830  -15.0460   12.3110 C.2    49  GLU49       0.3649
     23  OE1        0.9440  -13.8680   12.5180 O.co2  49  GLU49      -0.2457
     24  OE2       -0.6220  -15.4100   12.3610 O.co2  49  GLU49      -0.2457
     25  N          5.4940  -12.0770    8.8290 N.3    54  GLN54      -0.1245
     26  CA         4.7190  -12.9430    9.7250 C.3    54  GLN54       0.1566
     27  C          3.8350  -13.8990    8.9290 C.2    54  GLN54       0.2260
     28  O          2.6100  -13.9370    9.0810 O.2    54  GLN54      -0.2867
     29  CB         3.8580  -12.1230   10.7190 C.3    54  GLN54       0.0367
     30  CG         4.6890  -11.5030   11.8410 C.3    54  GLN54       0.0905
     31  CD         5.3720  -12.5420   12.7290 C.2    54  GLN54       0.2608
     32  OE1        4.7970  -12.9850   13.7280 O.2    54  GLN54      -0.2717
     33  NE2        6.6130  -12.9380   12.3640 N.am   54  GLN54      -0.0878
     34  N          2.4670  -17.3890    8.1310 N.3    56  SER56      -0.1217
     35  CA         2.0540  -18.5000    8.9810 C.3    56  SER56       0.1889
     36  C          2.3120  -19.9220    8.4890 C.2    56  SER56       0.2288
     37  O          2.1930  -20.1920    7.2950 O.2    56  SER56      -0.2866
     38  CB         0.5570  -18.3340    9.2250 C.3    56  SER56       0.2089
     39  OG         0.0330  -19.3650   10.0160 O.3    56  SER56      -0.2183
     40  N          0.4160  -22.3390    9.1630 N.3    58  ARG58      -0.1231
     41  CA        -0.8980  -22.9420    9.0780 C.3    58  ARG58       0.1694
     42  C         -1.1830  -23.3030    7.6120 C.2    58  ARG58       0.2592
     43  O         -1.5140  -24.4360    7.2990 O.2    58  ARG58      -0.2718
     44  CB        -1.9670  -21.9760    9.6420 C.3    58  ARG58       0.0321
     45  CG        -3.3970  -22.3350    9.2150 C.3    58  ARG58       0.0489
     46  CD        -4.4090  -22.2920   10.3530 C.3    58  ARG58       0.2205
     47  NE        -4.2560  -21.1260   11.2260 N.pl3  58  ARG58      -0.0865
     48  CZ        -4.4390  -21.1710   12.5470 C.cat  58  ARG58       0.5346
     49  NH1       -4.7820  -22.3190   13.1270 N.pl3  58  ARG58       0.1354
     50  NH2       -4.2610  -20.0860   13.2970 N.pl3  58  ARG58       0.1354
     51  N         -0.9970  -22.3640    6.6990 N.am   59  PHE59      -0.1962
     52  CA        -1.2530  -22.6580    5.2810 C.3    59  PHE59       0.1771
     53  C         -0.1170  -22.3210    4.3360 C.2    59  PHE59       0.2619
     54  O         -0.0520  -22.8620    3.2380 O.2    59  PHE59      -0.2715
     55  CB        -2.4360  -21.8280    4.7680 C.3    59  PHE59       0.0574
     56  CG        -3.7230  -22.1100    5.4540 C.ar   59  PHE59      -0.0200
     57  CD1       -4.2290  -23.4070    5.5010 C.ar   59  PHE59      -0.0042
     58  CD2       -4.4570  -21.0710    6.0170 C.ar   59  PHE59      -0.0042
     59  CE1       -5.4610  -23.6650    6.1030 C.ar   59  PHE59      -0.0003
     60  CE2       -5.6810  -21.3170    6.6190 C.ar   59  PHE59      -0.0003
     61  CZ        -6.1840  -22.6200    6.6620 C.ar   59  PHE59      -0.0000
     62  N          0.7610  -21.4120    4.7570 N.am   60  TRP60      -0.1974
     63  CA         1.7630  -20.8860    3.8450 C.3    60  TRP60       0.1640
     64  C          3.1650  -21.4500    3.7450 C.2    60  TRP60       0.2290
     65  O          3.7020  -21.5450    2.6460 O.2    60  TRP60      -0.2864
     66  CB         1.8090  -19.3620    4.0360 C.3    60  TRP60       0.0576
     67  CG         0.4000  -18.8140    4.0280 C.ar   60  TRP60       0.0006
     68  CD1       -0.3940  -18.5200    5.1040 C.ar   60  TRP60       0.0946
     69  CD2       -0.3920  -18.5750    2.8660 C.ar   60  TRP60       0.0152
     70  NE1       -1.6520  -18.1070    4.6740 N.ar   60  TRP60      -0.2442
     71  CE2       -1.6660  -18.1330    3.3010 C.ar   60  TRP60       0.0810
     72  CE3       -0.1450  -18.6960    1.4910 C.ar   60  TRP60       0.0012
     73  CZ2       -2.6880  -17.8050    2.4070 C.ar   60  TRP60       0.0191
     74  CZ3       -1.1730  -18.3630    0.5910 C.ar   60  TRP60       0.0001
     75  CH2       -2.4210  -17.9240    1.0610 C.ar   60  TRP60       0.0015
     76  N         -5.4160  -14.6180   -0.6890 N.3    99  LYS99      -0.1245
     77  CA        -6.2430  -14.2060    0.4300 C.3    99  LYS99       0.1561
     78  C         -6.4690  -12.7120    0.4160 C.2    99  LYS99       0.2260
     79  O         -7.5870  -12.2480    0.6610 O.2    99  LYS99      -0.2867
     80  CB        -5.5930  -14.6340    1.7560 C.3    99  LYS99       0.0271
     81  CG        -6.3680  -14.2370    3.0070 C.3    99  LYS99       0.0035
     82  CD        -5.6600  -14.8270    4.2440 C.3    99  LYS99       0.0206
     83  CE        -6.3820  -14.4820    5.5450 C.3    99  LYS99       0.1093
     84  NZ        -7.7840  -15.0200    5.5130 N.3    99  LYS99      -0.1314
     85  N         -6.2000   -8.4950    3.8600 N.3   102  ASP102     -0.1225
     86  CA        -6.8340   -8.7840    5.1520 C.3   102  ASP102      0.1805
     87  C         -6.0120   -9.7680    5.9800 C.2   102  ASP102      0.2598
     88  O         -6.2050   -9.8750    7.1850 O.2   102  ASP102     -0.2718
     89  CB        -8.2300   -9.3860    4.9680 C.3   102  ASP102      0.1424
     90  CG        -9.2570   -8.3740    4.4780 C.2   102  ASP102      0.3668
     91  OD1      -10.3800   -8.8170    4.1520 O.co2 102  ASP102     -0.2456
     92  OD2       -8.9520   -7.1520    4.4300 O.co2 102  ASP102     -0.2456
     93  N         -5.1260  -10.5090    5.3210 N.am  103  TYR103     -0.1962
     94  CA        -4.2640  -11.4360    6.0390 C.3   103  TYR103      0.1771
     95  C         -3.5000  -10.6420    7.1100 C.2   103  TYR103      0.2620
     96  O         -3.3480  -11.0910    8.2260 O.2   103  TYR103     -0.2715
     97  CB        -3.2420  -12.0810    5.0920 C.3   103  TYR103      0.0574
     98  CG        -2.2000  -12.9300    5.8260 C.ar  103  TYR103     -0.0198
     99  CD1       -2.4740  -14.2580    6.1620 C.ar  103  TYR103     -0.0009
    100  CD2       -0.9350  -12.4030    6.1800 C.ar  103  TYR103     -0.0009
    101  CE1       -1.5350  -15.0450    6.8250 C.ar  103  TYR103      0.0417
    102  CE2        0.0120  -13.1910    6.8340 C.ar  103  TYR103      0.0417
    103  CZ        -0.2900  -14.4980    7.1570 C.ar  103  TYR103      0.1957
    104  OH         0.6050  -15.2930    7.8420 O.3   103  TYR103     -0.2866
    105  N         -3.0170   -9.4670    6.7370 N.am  104  TRP104     -0.1960
    106  CA        -2.2570   -8.5980    7.6380 C.3   104  TRP104      0.1771
    107  C         -3.2620   -7.7440    8.4220 C.2   104  TRP104      0.2620
    108  O         -3.7150   -6.6930    7.9570 O.2   104  TRP104     -0.2715
    109  CB        -1.2800   -7.7330    6.8140 C.3   104  TRP104      0.0590
    110  CG        -0.1080   -8.5790    6.2920 C.ar  104  TRP104      0.0006
    111  CD1        1.0140   -8.9200    6.9870 C.ar  104  TRP104      0.0946
    112  CD2       -0.0190   -9.2540    5.0380 C.ar  104  TRP104      0.0152
    113  NE1        1.7920   -9.7710    6.2530 N.ar  104  TRP104     -0.2442
    114  CE2        1.1890   -9.9950    5.0480 C.ar  104  TRP104      0.0810
    115  CE3       -0.8420   -9.3120    3.9010 C.ar  104  TRP104      0.0012
    116  CZ2        1.6020  -10.7880    3.9630 C.ar  104  TRP104      0.0191
    117  CZ3       -0.4370  -10.0920    2.8180 C.ar  104  TRP104      0.0001
    118  CH2        0.7840  -10.8280    2.8570 C.ar  104  TRP104      0.0015
    119  N         -3.6110   -8.2380    9.6030 N.am  105  LYS105     -0.1963
    120  CA        -4.5740   -7.5890   10.4670 C.3   105  LYS105      0.1728
    121  C         -4.2440   -6.1700   10.8610 C.2   105  LYS105      0.2616
    122  O         -5.1360   -5.3980   11.1820 O.2   105  LYS105     -0.2715
    123  CB        -4.7850   -8.4370   11.7230 C.3   105  LYS105      0.0311
    124  CG        -5.5590   -9.7170   11.4130 C.3   105  LYS105      0.0038
    125  CD        -5.8240  -10.5430   12.6430 C.3   105  LYS105      0.0206
    126  CE        -6.8840  -11.6050   12.3170 C.3   105  LYS105      0.1093
    127  NZ        -7.2920  -12.3690   13.5350 N.3   105  LYS105     -0.1314
    128  N         -2.9730   -5.8040   10.8480 N.am  106  ALA106     -0.1977
    129  CA        -2.6270   -4.4440   11.2450 C.3   106  ALA106      0.1597
    130  C         -2.9950   -3.3910   10.2110 C.2   106  ALA106      0.2287
    131  O         -3.1200   -2.2080   10.5370 O.2   106  ALA106     -0.2864
    132  CB        -1.1330   -4.3390   11.5320 C.3   106  ALA106      0.0319
@<TRIPOS>BOND
     1    76    77    1
     2    78    77    1
     3    78    79    2
     4    77    80    1
     5    74    75   ar
     6    74    72   ar
     7    75    73   ar
     8    72    69   ar
     9    80    81    1
    10    73    71   ar
    11    65    64    2
    12   117   118   ar
    13   117   115   ar
    14   118   116   ar
    15    69    71   ar
    16    69    67   ar
    17    81    82    1
    18    54    53    2
    19    71    70   ar
    20    64    63    1
    21    63    66    1
    22    63    62    1
    23    85    86    1
    24   115   112   ar
    25   116   114   ar
    26    67    66    1
    27    67    68   ar
    28    91    90   ar
    29    82    83    1
    30    53    62   am
    31    53    52    1
    32    92    90   ar
    33    90    89    1
    34    70    68   ar
    35    55    52    1
    36    55    56    1
    37    89    86    1
    38   112   114   ar
    39   112   110   ar
    40   114   113   ar
    41    97    98    1
    42    97    94    1
    43    86    87    1
    44    52    51    1
    45    93    87   am
    46    93    94    1
    47    56    57   ar
    48    56    58   ar
    49    57    59   ar
    50    84    83    1
    51    98    99   ar
    52    98   100   ar
    53    87    88    2
    54    58    60   ar
    55    94    95    1
    56    59    61   ar
    57    99   101   ar
    58   100   102   ar
    59   113   111   ar
    60   110   109    1
    61   110   111   ar
    62    60    61   ar
    63    51    42   am
    64   105    95   am
    65   105   106    1
    66   109   106    1
    67   101   103   ar
    68   102   103   ar
    69    95    96    2
    70   103   104    1
    71    37    36    2
    72    43    42    2
    73    42    41    1
    74   106   107    1
    75   108   107    2
    76    34    35    1
    77   107   119   am
    78    36    35    1
    79    25    26    1
    80    27    28    2
    81    27    26    1
    82    35    38    1
    83    41    40    1
    84    41    44    1
    85    45    44    1
    86    45    46    1
    87    38    39    1
    88   119   120    1
    89    26    29    1
    90     6     5    1
    91   130   131    2
    92   130   129    1
    93    46    47    1
    94     7     5    1
    95   120   121    1
    96   120   123    1
    97     5     2    1
    98    29    30    1
    99   128   121   am
   100   128   129    1
   101   121   122    2
   102    47    48    2
   103   129   132    1
   104   124   123    1
   105   124   125    1
   106    30    31    1
   107    21    20    1
   108    21    22    1
   109     2     1    1
   110     2     3    1
   111    18    17    1
   112    18    19    2
   113    17    20    1
   114    17    16    1
   115    22    24   ar
   116    22    23   ar
   117   126   125    1
   118   126   127    1
   119    33    31   am
   120    48    49    1
   121    48    50    1
   122     3     4    2
   123    31    32    2
   124    15    13   ar
   125    13    14   ar
   126    13    12    1
   127    12     9    1
   128    11    10    2
   129     9    10    1
   130     9     8    1
