@<TRIPOS>MOLECULE
tmp/1yrsB01.pdb
 151 144 0 0 0
SMALL
GASTEIGER

@<TRIPOS>ATOM
      1  N         38.9820    9.1720   52.8830 N.3    99  GLU99      -0.1231
      2  CA        39.2000   10.3980   52.1120 C.3    99  GLU99       0.1699
      3  C         40.2350   10.2580   51.0020 C.2    99  GLU99       0.2593
      4  O         39.9810   10.6160   49.8480 O.2    99  GLU99      -0.2718
      5  CB        39.6320   11.5620   53.0670 C.3    99  GLU99       0.0402
      6  CG        38.5100   12.1260   53.9180 C.3    99  GLU99       0.1161
      7  CD        39.0230   12.9670   55.0710 C.2    99  GLU99       0.3649
      8  OE1       40.1910   13.3960   55.0240 O.co2  99  GLU99      -0.2457
      9  OE2       38.2550   13.2060   56.0230 O.co2  99  GLU99      -0.2457
     10  N         41.4060    9.7520   51.3740 N.am  100  GLY100     -0.1942
     11  CA        42.4830    9.6010   50.4170 C.3   100  GLY100      0.2014
     12  C         43.4230   10.7910   50.4500 C.2   100  GLY100      0.2639
     13  O         43.1990   11.7540   51.1770 O.2   100  GLY100     -0.2714
     14  N         44.4780   10.7260   49.6530 N.am  101  GLU101     -0.1963
     15  CA        45.4620   11.7930   49.6030 C.3   101  GLU101      0.1733
     16  C         45.7140   12.1330   48.1350 C.2   101  GLU101      0.2616
     17  O         45.1050   11.5530   47.2410 O.2   101  GLU101     -0.2715
     18  CB        46.7850   11.3220   50.2900 C.3   101  GLU101      0.0429
     19  CG        46.5680   10.5290   51.5880 C.3   101  GLU101      0.1163
     20  CD        47.8730   10.0790   52.2550 C.2   101  GLU101      0.3649
     21  OE1       48.8730    9.8470   51.5330 O.co2 101  GLU101     -0.2457
     22  OE2       47.8950    9.9430   53.5040 O.co2 101  GLU101     -0.2457
     23  N         46.6020   13.0820   47.8830 N.am  102  ARG102     -0.1977
     24  CA        46.8960   13.4440   46.5140 C.3   102  ARG102      0.1597
     25  C         48.1750   12.7540   46.0650 C.2   102  ARG102      0.2287
     26  O         49.1180   12.5790   46.8540 O.2   102  ARG102     -0.2864
     27  CB        47.0560   14.9870   46.3680 C.3   102  ARG102      0.0334
     28  CG        45.7800   15.8050   46.6050 C.3   102  ARG102      0.0492
     29  CD        44.5900   15.2480   45.8420 C.3   102  ARG102      0.2205
     30  NE        44.8600   15.0440   44.4200 N.pl3 102  ARG102     -0.0865
     31  CZ        44.7600   15.9840   43.4810 C.cat 102  ARG102      0.5346
     32  NH1       44.3910   17.2140   43.8040 N.pl3 102  ARG102      0.1354
     33  NH2       45.0220   15.6920   42.2110 N.pl3 102  ARG102      0.1354
     34  N         42.1150   15.8360   40.2950 N.3   110  TRP110     -0.1241
     35  CA        41.4990   15.1560   41.4140 C.3   110  TRP110      0.1605
     36  C         40.6380   13.9560   41.0290 C.2   110  TRP110      0.2264
     37  O         40.6650   12.9340   41.7180 O.2   110  TRP110     -0.2867
     38  CB        40.6690   16.1410   42.2450 C.3   110  TRP110      0.0550
     39  CG        39.3740   16.4900   41.6170 C.ar  110  TRP110      0.0003
     40  CD1       39.1330   17.4980   40.7360 C.ar  110  TRP110      0.0946
     41  CD2       38.1290   15.8070   41.8010 C.ar  110  TRP110      0.0152
     42  NE1       37.8100   17.4920   40.3590 N.ar  110  TRP110     -0.2442
     43  CE2       37.1700   16.4650   41.0000 C.ar  110  TRP110      0.0810
     44  CE3       37.7310   14.6990   42.5650 C.ar  110  TRP110      0.0012
     45  CZ2       35.8350   16.0530   40.9400 C.ar  110  TRP110      0.0191
     46  CZ3       36.4090   14.2830   42.5060 C.ar  110  TRP110      0.0001
     47  CH2       35.4710   14.9620   41.6970 C.ar  110  TRP110      0.0015
     48  N         42.9930   10.8410   40.3740 N.3   113  ASP113     -0.1239
     49  CA        44.0260   10.4690   41.3310 C.3   113  ASP113      0.1674
     50  C         43.7210    9.0940   41.9190 C.2   113  ASP113      0.2266
     51  O         42.6720    8.8920   42.5350 O.2   113  ASP113     -0.2867
     52  CB        44.1170   11.5060   42.4510 C.3   113  ASP113      0.1410
     53  CG        45.4890   11.5420   43.0980 C.2   113  ASP113      0.3668
     54  OD1       46.0280   10.4610   43.4320 O.co2 113  ASP113     -0.2456
     55  OD2       46.0290   12.6560   43.2740 O.co2 113  ASP113     -0.2456
     56  N         42.8590    8.5990   45.6330 N.3   116  ALA116     -0.1245
     57  CA        41.5860    9.1720   46.0880 C.3   116  ALA116      0.1562
     58  C         40.7860    8.1320   46.8910 C.2   116  ALA116      0.2260
     59  O         40.7790    6.9450   46.5670 O.2   116  ALA116     -0.2867
     60  CB        40.7520    9.6670   44.8870 C.3   116  ALA116      0.0290
     61  N         35.1100    9.0280   49.5590 N.3   119  ILE119     -0.1231
     62  CA        34.3780   10.2760   49.3730 C.3   119  ILE119      0.1678
     63  C         34.5320   10.8970   47.9810 C.2   119  ILE119      0.2434
     64  O         33.5790   10.9220   47.2120 O.2   119  ILE119     -0.2733
     65  CB        34.7490   11.3010   50.4670 C.3   119  ILE119      0.0265
     66  CG1       34.2540   10.7630   51.8550 C.3   119  ILE119      0.0019
     67  CG2       34.1170   12.6590   50.1620 C.3   119  ILE119      0.0020
     68  CD1       34.6840   11.6070   53.0740 C.3   119  ILE119      0.0001
     69  N         35.7240   11.3880   47.6280 N.am  120  PRO120     -0.2729
     70  CA        35.8080   11.9730   46.2860 C.3   120  PRO120      0.1401
     71  C         35.3030   11.0470   45.1730 C.2   120  PRO120      0.2269
     72  O         34.6120   11.4890   44.2570 O.2   120  PRO120     -0.2865
     73  CB        37.2820   12.3280   46.1510 C.3   120  PRO120      0.0296
     74  CG        37.9630   11.3570   47.0490 C.3   120  PRO120      0.0237
     75  CD        37.0520   11.2910   48.2500 C.3   120  PRO120      0.0939
     76  N         29.4930   18.0020   56.5600 N.3   143  LEU143     -0.1245
     77  CA        30.6230   17.5110   57.3090 C.3   143  LEU143      0.1561
     78  C         30.4770   17.8890   58.7740 C.2   143  LEU143      0.2260
     79  O         30.8640   18.9810   59.1970 O.2   143  LEU143     -0.2867
     80  CB        31.8760   18.0650   56.7480 C.3   143  LEU143      0.0270
     81  CG        33.1450   17.4170   57.2590 C.3   143  LEU143      0.0019
     82  CD1       32.9700   15.9010   57.2840 C.3   143  LEU143      0.0001
     83  CD2       34.3190   17.8390   56.3630 C.3   143  LEU143      0.0001
     84  N         32.2790   22.6420   57.2000 N.3   155  LEU155     -0.1245
     85  CA        31.9520   23.0700   55.8410 C.3   155  LEU155      0.1561
     86  C         31.3040   24.4460   55.7840 C.2   155  LEU155      0.2260
     87  O         31.1340   25.0080   54.7130 O.2   155  LEU155     -0.2867
     88  CB        31.0360   22.0600   55.1470 C.3   155  LEU155      0.0270
     89  CG        31.6810   20.8040   54.5860 C.3   155  LEU155      0.0019
     90  CD1       30.6840   20.1040   53.6680 C.3   155  LEU155      0.0001
     91  CD2       32.9230   21.1700   53.8060 C.3   155  LEU155      0.0001
     92  N         35.6860   19.3240   44.3660 N.3   194  TYR194     -0.1241
     93  CA        37.0320   19.5210   44.9010 C.3   194  TYR194      0.1605
     94  C         37.1140   20.7580   45.7810 C.2   194  TYR194      0.2264
     95  O         37.6470   20.6980   46.8870 O.2   194  TYR194     -0.2867
     96  CB        38.1100   19.5870   43.7770 C.3   194  TYR194      0.0534
     97  CG        39.5140   19.3760   44.3160 C.ar  194  TYR194     -0.0201
     98  CD1       39.8290   18.2300   45.0440 C.ar  194  TYR194     -0.0009
     99  CD2       40.5160   20.3340   44.1390 C.ar  194  TYR194     -0.0009
    100  CE1       41.1060   18.0360   45.5910 C.ar  194  TYR194      0.0417
    101  CE2       41.7990   20.1540   44.6810 C.ar  194  TYR194      0.0417
    102  CZ        42.0880   18.9990   45.4090 C.ar  194  TYR194      0.1957
    103  OH        43.3470   18.8030   45.9610 O.3   194  TYR194     -0.2866
    104  N         35.6470   20.2190   49.1360 N.3   197  LEU197     -0.1231
    105  CA        36.5120   19.3920   49.9670 C.3   197  LEU197      0.1693
    106  C         37.6780   20.2420   50.4730 C.2   197  LEU197      0.2591
    107  O         38.0730   20.1250   51.6350 O.2   197  LEU197     -0.2718
    108  CB        37.0420   18.1570   49.1670 C.3   197  LEU197      0.0284
    109  CG        35.9710   17.1300   48.6750 C.3   197  LEU197      0.0019
    110  CD1       36.6280   15.9670   47.9370 C.3   197  LEU197      0.0001
    111  CD2       35.1860   16.6160   49.8680 C.3   197  LEU197      0.0001
    112  N         38.2190   21.1110   49.6170 N.am  198  GLU198     -0.1979
    113  CA        39.3290   21.9730   50.0370 C.3   198  GLU198      0.1602
    114  C         38.9290   22.8390   51.2370 C.2   198  GLU198      0.2287
    115  O         39.7030   22.9960   52.1870 O.2   198  GLU198     -0.2864
    116  CB        39.8140   22.8950   48.8630 C.3   198  GLU198      0.0415
    117  CG        40.3880   22.1600   47.6560 C.3   198  GLU198      0.1163
    118  CD        41.0440   23.0990   46.6430 C.2   198  GLU198      0.3649
    119  OE1       42.2880   23.2730   46.6900 O.co2 198  GLU198     -0.2457
    120  OE2       40.3060   23.6670   45.8050 O.co2 198  GLU198     -0.2457
    121  N         36.6520   22.2920   53.6070 N.3   200  GLY200     -0.1210
    122  CA        36.6110   21.5170   54.8340 C.3   200  GLY200      0.1956
    123  C         38.0350   21.2600   55.2970 C.2   200  GLY200      0.2611
    124  O         38.3660   21.4140   56.4800 O.2   200  GLY200     -0.2717
    125  N         38.8870   20.8770   54.3510 N.am  201  ALA201     -0.1979
    126  CA        40.2870   20.6120   54.6520 C.3   201  ALA201      0.1597
    127  C         40.8900   21.8160   55.3820 C.2   201  ALA201      0.2287
    128  O         41.6320   21.6510   56.3470 O.2   201  ALA201     -0.2864
    129  CB        41.0550   20.3300   53.3660 C.3   201  ALA201      0.0319
    130  N         39.6640   22.0150   58.9880 N.3   204  ARG204     -0.1245
    131  CA        40.3250   20.9440   59.7450 C.3   204  ARG204      0.1563
    132  C         41.6060   21.5140   60.3360 C.2   204  ARG204      0.2260
    133  O         41.8620   21.4090   61.5390 O.2   204  ARG204     -0.2867
    134  CB        40.7140   19.7910   58.8180 C.3   204  ARG204      0.0307
    135  CG        39.5780   18.9240   58.3470 C.3   204  ARG204      0.0489
    136  CD        39.4560   17.7010   59.2260 C.3   204  ARG204      0.2205
    137  NE        38.2910   16.9040   58.8660 N.pl3 204  ARG204     -0.0865
    138  CZ        38.2070   16.1290   57.7930 C.cat 204  ARG204      0.5346
    139  NH1       39.2300   16.0310   56.9490 N.pl3 204  ARG204      0.1354
    140  NH2       37.0880   15.4470   57.5760 N.pl3 204  ARG204      0.1354
    141  N         30.6960   12.6600   57.1970 N.3   222  PHE222     -0.1241
    142  CA        30.4920   13.3190   55.9050 C.3   222  PHE222      0.1605
    143  C         29.2960   12.6540   55.2330 C.2   222  PHE222      0.2264
    144  O         29.3900   11.5060   54.7930 O.2   222  PHE222     -0.2867
    145  CB        31.7200   13.1490   55.0130 C.3   222  PHE222      0.0534
    146  CG        31.6620   13.9450   53.7380 C.ar  222  PHE222     -0.0203
    147  CD1       30.6770   13.6900   52.7800 C.ar  222  PHE222     -0.0042
    148  CD2       32.5890   14.9550   53.4960 C.ar  222  PHE222     -0.0042
    149  CE1       30.6130   14.4280   51.5950 C.ar  222  PHE222     -0.0003
    150  CE2       32.5360   15.7030   52.3130 C.ar  222  PHE222     -0.0003
    151  CZ        31.5450   15.4400   51.3580 C.ar  222  PHE222     -0.0000
@<TRIPOS>BOND
     1    34    35    1
     2    42    40   ar
     3    42    43   ar
     4    48    49    1
     5    40    39   ar
     6    45    43   ar
     7    45    47   ar
     8    43    41   ar
     9    36    35    1
    10    36    37    2
    11    49    50    1
    12    49    52    1
    13    35    38    1
    14    39    41   ar
    15    39    38    1
    16    47    46   ar
    17    41    44   ar
    18    50    51    2
    19    33    31    1
    20    52    53    1
    21    46    44   ar
    22    53    55   ar
    23    53    54   ar
    24    31    32    1
    25    31    30    2
    26    96    97    1
    27    96    93    1
    28    99    97   ar
    29    99   101   ar
    30    72    71    2
    31    97    98   ar
    32    92    93    1
    33    30    29    1
    34   101   102   ar
    35    60    57    1
    36    93    94    1
    37    98   100   ar
    38    71    70    1
    39   102   100   ar
    40   102   103    1
    41    56    57    1
    42    94    95    2
    43   120   118   ar
    44    29    28    1
    45    25    24    1
    46    25    26    2
    47    57    58    1
    48    73    70    1
    49    73    74    1
    50    70    69    1
    51    27    24    1
    52    27    28    1
    53    24    23    1
    54    59    58    2
    55   118   119   ar
    56   118   117    1
    57    74    75    1
    58    64    63    2
    59    17    16    2
    60    69    63   am
    61    69    75    1
    62   117   116    1
    63    23    16   am
    64   110   109    1
    65    63    62    1
    66    16    15    1
    67   109   108    1
    68   109   111    1
    69   116   113    1
    70   104   105    1
    71   108   105    1
    72    62    61    1
    73    62    65    1
    74    15    14    1
    75    15    18    1
    76   112   113    1
    77   112   106   am
    78    14    12   am
    79     4     3    2
    80   105   106    1
    81   113   114    1
    82    67    65    1
    83    18    19    1
    84    11    12    1
    85    11    10    1
    86    12    13    2
    87    65    66    1
    88   106   107    2
    89     3    10   am
    90     3     2    1
    91   114   115    2
    92   151   149   ar
    93   151   150   ar
    94    21    20   ar
    95    19    20    1
    96   149   147   ar
    97    66    68    1
    98     2     1    1
    99     2     5    1
   100    20    22   ar
   101   150   148   ar
   102   147   146   ar
   103     5     6    1
   104   129   126    1
   105   148   146   ar
   106   121   122    1
   107    90    89    1
   108   146   145    1
   109    91    89    1
   110     6     7    1
   111   125   126    1
   112   125   123   am
   113    89    88    1
   114   126   127    1
   115    87    86    2
   116   144   143    2
   117   122   123    1
   118   145   142    1
   119     8     7   ar
   120     7     9   ar
   121    88    85    1
   122   143   142    1
   123   123   124    2
   124   127   128    2
   125    86    85    1
   126    85    84    1
   127   142   141    1
   128    83    81    1
   129    76    77    1
   130    80    81    1
   131    80    77    1
   132   139   138    1
   133    81    82    1
   134    77    78    1
   135   140   138    1
   136   138   137    2
   137   135   134    1
   138   135   136    1
   139    78    79    2
   140   134   131    1
   141   137   136    1
   142   130   131    1
   143   131   132    1
   144   132   133    2
