@<TRIPOS>MOLECULE
tmp/1yryA00.pdb
 146 139 0 0 0
SMALL
GASTEIGER

@<TRIPOS>ATOM
      1  N         46.2520   43.5440   32.1300 N.3    32  SER32      -0.1217
      2  CA        45.6840   44.8730   32.3710 C.3    32  SER32       0.1889
      3  C         44.5220   45.1370   31.4370 C.2    32  SER32       0.2288
      4  O         44.6640   45.0240   30.2160 O.2    32  SER32      -0.2866
      5  CB        46.7320   45.9790   32.1870 C.3    32  SER32       0.2089
      6  OG        47.7430   45.9290   33.1880 O.3    32  SER32      -0.2183
      7  N         53.9080   41.4440   38.9190 N.3    85  HIS85      -0.1241
      8  CA        54.9030   41.7700   37.9100 C.3    85  HIS85       0.1621
      9  C         56.2790   41.8890   38.5080 C.2    85  HIS85       0.2264
     10  O         56.4410   42.2800   39.6550 O.2    85  HIS85      -0.2867
     11  CB        54.5940   43.0780   37.2400 C.3    85  HIS85       0.0745
     12  CG        53.3550   43.0730   36.4300 C.ar   85  HIS85       0.0817
     13  ND1       52.1070   43.2470   36.9880 N.ar   85  HIS85      -0.2268
     14  CD2       53.1750   43.0590   35.0910 C.ar   85  HIS85       0.1154
     15  CE1       51.2130   43.3570   36.0220 C.ar   85  HIS85       0.1986
     16  NE2       51.8370   43.2460   34.8620 N.ar   85  HIS85      -0.2212
     17  N         58.5100   43.9960   37.4390 N.3    87  TYR87      -0.1241
     18  CA        58.7490   45.4340   37.5720 C.3    87  TYR87       0.1605
     19  C         58.1700   46.0520   38.8190 C.2    87  TYR87       0.2264
     20  O         58.4460   47.2030   39.1120 O.2    87  TYR87      -0.2867
     21  CB        58.2840   46.2120   36.3410 C.3    87  TYR87       0.0534
     22  CG        56.7920   46.2290   36.0810 C.ar   87  TYR87      -0.0201
     23  CD1       56.2700   45.7060   34.9000 C.ar   87  TYR87      -0.0009
     24  CD2       55.9130   46.7890   36.9870 C.ar   87  TYR87      -0.0009
     25  CE1       54.9210   45.7440   34.6380 C.ar   87  TYR87       0.0417
     26  CE2       54.5650   46.8290   36.7320 C.ar   87  TYR87       0.0417
     27  CZ        54.0730   46.3040   35.5620 C.ar   87  TYR87       0.1957
     28  OH        52.7210   46.3050   35.3340 O.3    87  TYR87      -0.2866
     29  N         48.2980   42.5350   28.2130 N.3   115  ALA115     -0.1231
     30  CA        48.1880   43.6130   27.2400 C.3   115  ALA115      0.1694
     31  C         49.5990   43.8320   26.7460 C.2   115  ALA115      0.2592
     32  O         50.5210   43.9060   27.5550 O.2   115  ALA115     -0.2718
     33  CB        47.6700   44.8600   27.8920 C.3   115  ALA115      0.0304
     34  N         49.7830   43.9320   25.4370 N.am  116  ALA116     -0.1966
     35  CA        51.1150   44.1210   24.8940 C.3   116  ALA116      0.1728
     36  C         51.1180   45.0620   23.7110 C.2   116  ALA116      0.2616
     37  O         50.0800   45.3290   23.1190 O.2   116  ALA116     -0.2715
     38  CB        51.6720   42.8040   24.4760 C.3   116  ALA116      0.0334
     39  N         52.3030   45.5650   23.3840 N.am  117  GLY117     -0.1955
     40  CA        52.4790   46.4640   22.2620 C.3   117  GLY117      0.1869
     41  C         52.6570   45.6240   21.0160 C.2   117  GLY117      0.2309
     42  O         53.1210   44.4890   21.1000 O.2   117  GLY117     -0.2863
     43  N         59.8200   41.4980   28.6060 N.3   194  VAL194     -0.1245
     44  CA        60.8440   42.4960   28.7810 C.3   194  VAL194      0.1561
     45  C         60.3890   43.0890   30.1230 C.2   194  VAL194      0.2260
     46  O         59.2020   43.3540   30.2720 O.2   194  VAL194     -0.2867
     47  CB        60.6600   43.4830   27.6270 C.3   194  VAL194      0.0252
     48  CG1       60.5990   44.8890   28.1140 C.3   194  VAL194      0.0019
     49  CG2       61.7020   43.2730   26.5770 C.3   194  VAL194      0.0019
     50  N         58.8830   52.0600   29.1850 N.3   199  PHE199     -0.1227
     51  CA        58.5390   51.5800   27.8650 C.3   199  PHE199      0.1736
     52  C         59.7500   51.5820   26.9510 C.2   199  PHE199      0.2595
     53  O         60.7030   52.3260   27.1500 O.2   199  PHE199     -0.2718
     54  CB        57.3930   52.4050   27.2780 C.3   199  PHE199      0.0547
     55  CG        56.0510   52.0770   27.8670 C.ar  199  PHE199     -0.0202
     56  CD1       55.7580   50.7930   28.2920 C.ar  199  PHE199     -0.0042
     57  CD2       55.0790   53.0500   27.9930 C.ar  199  PHE199     -0.0042
     58  CE1       54.5250   50.4810   28.8330 C.ar  199  PHE199     -0.0003
     59  CE2       53.8400   52.7430   28.5340 C.ar  199  PHE199     -0.0003
     60  CZ        53.5670   51.4520   28.9540 C.ar  199  PHE199     -0.0000
     61  N         59.6870   50.7340   25.9390 N.am  200  GLU200     -0.1979
     62  CA        60.7540   50.5580   24.9810 C.3   200  GLU200      0.1602
     63  C         61.0790   51.8570   24.2830 C.2   200  GLU200      0.2287
     64  O         60.2250   52.7230   24.1710 O.2   200  GLU200     -0.2864
     65  CB        60.3260   49.5250   23.9330 C.3   200  GLU200      0.0415
     66  CG        60.0450   48.1330   24.4740 C.3   200  GLU200      0.1163
     67  CD        58.7850   48.0580   25.3370 C.2   200  GLU200      0.3649
     68  OE1       58.8060   47.2960   26.3310 O.co2 200  GLU200     -0.2457
     69  OE2       57.7790   48.7530   25.0360 O.co2 200  GLU200     -0.2457
     70  N         55.2660   42.8990   22.5070 N.3   216  VAL216     -0.1231
     71  CA        56.1120   43.1030   23.6930 C.3   216  VAL216      0.1692
     72  C         55.3120   43.3740   24.9640 C.2   216  VAL216      0.2593
     73  O         54.3360   44.1110   24.9360 O.2   216  VAL216     -0.2718
     74  CB        57.1410   44.2570   23.4680 C.3   216  VAL216      0.0266
     75  CG1       56.4550   45.5570   23.0760 C.3   216  VAL216      0.0020
     76  CG2       57.9720   44.4560   24.7050 C.3   216  VAL216      0.0020
     77  N         55.7430   42.8250   26.0880 N.am  217  GLY217     -0.1942
     78  CA        55.0050   43.0250   27.3140 C.3   217  GLY217      0.2014
     79  C         55.9040   42.6810   28.4620 C.2   217  GLY217      0.2639
     80  O         56.9610   42.1180   28.2510 O.2   217  GLY217     -0.2714
     81  N         55.4330   42.9070   29.6780 N.am  218  MET218     -0.1963
     82  CA        56.2230   42.7010   30.8820 C.3   218  MET218      0.1736
     83  C         55.6650   41.6860   31.8550 C.2   218  MET218      0.2617
     84  O         55.7470   41.8880   33.0660 O.2   218  MET218     -0.2715
     85  CB        56.3490   44.0380   31.6040 C.3   218  MET218      0.0427
     86  CG        56.8730   45.1480   30.7140 C.3   218  MET218      0.0599
     87  SD        56.4940   46.7710   31.3190 S.3   218  MET218     -0.1393
     88  CE        56.9010   47.6830   29.8590 C.3   218  MET218      0.0692
     89  N         55.1330   40.5830   31.3460 N.am  219  SER219     -0.1950
     90  CA        54.5770   39.5560   32.2180 C.3   219  SER219      0.1924
     91  C         54.2860   38.3120   31.3980 C.2   219  SER219      0.2314
     92  O         54.6830   38.2250   30.2400 O.2   219  SER219     -0.2863
     93  CB        53.2790   40.0580   32.8230 C.3   219  SER219      0.2116
     94  OG        52.3240   40.3200   31.8000 O.3   219  SER219     -0.2180
     95  N         47.4090   46.3210   23.0110 N.3   241  THR241     -0.1203
     96  CA        46.9080   47.6010   23.4610 C.3   241  THR241      0.1994
     97  C         47.4890   48.8160   22.7580 C.2   241  THR241      0.2617
     98  O         47.1280   49.9430   23.0900 O.2   241  THR241     -0.2717
     99  CB        47.0060   47.7460   24.9900 C.3   241  THR241      0.1784
    100  OG1       48.3400   47.4580   25.4270 O.3   241  THR241     -0.2211
    101  CG2       46.0180   46.7990   25.6680 C.3   241  THR241      0.0376
    102  N         48.3970   48.5990   21.8140 N.am  242  ASN242     -0.1974
    103  CA        48.9780   49.6910   21.0370 C.3   242  ASN242      0.1688
    104  C         50.0160   49.1770   20.0600 C.2   242  ASN242      0.2292
    105  O         50.2380   47.9730   19.9710 O.2   242  ASN242     -0.2864
    106  CB        49.5270   50.8290   21.9300 C.3   242  ASN242      0.1181
    107  CG        50.9640   50.6250   22.3670 C.2   242  ASN242      0.2629
    108  OD1       51.2250   50.2130   23.4910 O.2   242  ASN242     -0.2716
    109  ND2       51.9060   51.0190   21.5130 N.am  242  ASN242     -0.0877
    110  N         53.9320   49.7330   18.7950 N.3   244  VAL244     -0.1245
    111  CA        55.1930   50.3600   19.1580 C.3   244  VAL244      0.1561
    112  C         55.7550   51.0480   17.9070 C.2   244  VAL244      0.2260
    113  O         55.6420   50.5110   16.7970 O.2   244  VAL244     -0.2867
    114  CB        56.2060   49.3100   19.7140 C.3   244  VAL244      0.0252
    115  CG1       55.6390   48.5850   20.9410 C.3   244  VAL244      0.0019
    116  CG2       56.5600   48.3170   18.6500 C.3   244  VAL244      0.0019
    117  N         51.6080   55.7590   24.4950 N.3   254  ALA254     -0.1231
    118  CA        50.6120   54.7640   24.9340 C.3   254  ALA254      0.1694
    119  C         50.8510   54.1190   26.3130 C.2   254  ALA254      0.2592
    120  O         50.9020   52.8980   26.4300 O.2   254  ALA254     -0.2718
    121  CB        50.4600   53.6680   23.8640 C.3   254  ALA254      0.0304
    122  N         50.9130   54.9360   27.3610 N.am  255  ASN255     -0.1960
    123  CA        51.1430   54.4440   28.7310 C.3   255  ASN255      0.1819
    124  C         50.0320   53.5220   29.2580 C.2   255  ASN255      0.2621
    125  O         49.0340   53.2880   28.5710 O.2   255  ASN255     -0.2715
    126  CB        51.2410   55.6350   29.6950 C.3   255  ASN255      0.1195
    127  CG        52.6310   56.2550   29.7550 C.2   255  ASN255      0.2630
    128  OD1       53.1840   56.4340   30.8470 O.2   255  ASN255     -0.2716
    129  ND2       53.1780   56.6370   28.5960 N.am  255  ASN255     -0.0877
    130  N         50.2200   52.9810   30.4690 N.am  256  HIS256     -0.1973
    131  CA        49.1750   52.1650   31.1100 C.3   256  HIS256      0.1656
    132  C         48.1300   53.2380   31.3330 C.2   256  HIS256      0.2291
    133  O         46.9280   53.0120   31.1580 O.2   256  HIS256     -0.2864
    134  CB        49.6160   51.6340   32.4790 C.3   256  HIS256      0.0771
    135  CG        48.5560   50.8580   33.2130 C.ar  256  HIS256      0.0820
    136  ND1       48.7100   49.5310   33.5640 N.ar  256  HIS256     -0.2267
    137  CD2       47.3440   51.2310   33.6930 C.ar  256  HIS256      0.1154
    138  CE1       47.6450   49.1220   34.2290 C.ar  256  HIS256      0.1986
    139  NE2       46.8010   50.1340   34.3200 N.ar  256  HIS256     -0.2212
    140  N         46.2560   53.0260   28.0410 N.3   259  VAL259     -0.1245
    141  CA        45.7650   51.6470   27.9150 C.3   259  VAL259      0.1561
    142  C         44.3950   51.5410   27.1940 C.2   259  VAL259      0.2260
    143  O         43.7960   50.4640   27.1310 O.2   259  VAL259     -0.2867
    144  CB        45.7060   50.9740   29.3440 C.3   259  VAL259      0.0252
    145  CG1       44.3960   51.2840   30.0610 C.3   259  VAL259      0.0019
    146  CG2       45.9450   49.4790   29.2590 C.3   259  VAL259      0.0019
@<TRIPOS>BOND
     1   113   112    2
     2   112   111    1
     3   116   114    1
     4   110   111    1
     5   111   114    1
     6   114   115    1
     7   105   104    2
     8   104   103    1
     9    41    42    2
    10    41    40    1
    11   103   102    1
    12   103   106    1
    13   109   107   am
    14   102    97   am
    15   106   107    1
    16    40    39    1
    17   107   108    2
    18    70    71    1
    19    97    98    2
    20    97    96    1
    21    95    96    1
    22    75    74    1
    23    37    36    2
    24    39    36   am
    25    96    99    1
    26    74    71    1
    27    74    76    1
    28    71    72    1
    29    36    35    1
    30   121   118    1
    31    65    66    1
    32    65    62    1
    33    64    63    2
    34    63    62    1
    35    66    67    1
    36    38    35    1
    37   117   118    1
    38    35    34    1
    39   118   119    1
    40    73    72    2
    41    72    77   am
    42    62    61    1
    43    99   100    1
    44    99   101    1
    45    69    67   ar
    46    67    68   ar
    47    34    31   am
    48    61    52   am
    49    77    78    1
    50   119   120    2
    51   119   122   am
    52    49    47    1
    53    31    30    1
    54    31    32    2
    55    52    53    2
    56    52    51    1
    57   143   142    2
    58   142   141    1
    59    30    33    1
    60    30    29    1
    61    54    51    1
    62    54    55    1
    63    78    79    1
    64   122   123    1
    65    47    48    1
    66    47    44    1
    67    51    50    1
    68    55    57   ar
    69    55    56   ar
    70   141   140    1
    71   141   144    1
    72    57    59   ar
    73    80    79    2
    74    56    58   ar
    75    79    81   am
    76    59    60   ar
    77   125   124    2
    78   129   127   am
    79    43    44    1
    80   123   124    1
    81   123   126    1
    82    44    45    1
    83    58    60   ar
    84   124   130   am
    85   146   144    1
    86   144   145    1
    87    81    82    1
    88   126   127    1
    89   127   128    2
    90    88    87    1
    91    45    46    2
    92     4     3    2
    93    92    91    2
    94   130   131    1
    95    86    87    1
    96    86    85    1
    97    82    85    1
    98    82    83    1
    99   131   132    1
   100   131   134    1
   101   133   132    2
   102    89    83   am
   103    89    90    1
   104    91    90    1
   105     3     2    1
   106    94    93    1
   107    83    84    2
   108     1     2    1
   109     5     2    1
   110     5     6    1
   111    90    93    1
   112   134   135    1
   113   135   136   ar
   114   135   137   ar
   115   136   138   ar
   116   137   139   ar
   117   138   139   ar
   118    25    23   ar
   119    25    27   ar
   120    16    14   ar
   121    16    15   ar
   122    23    22   ar
   123    14    12   ar
   124    28    27    1
   125    27    26   ar
   126    15    13   ar
   127    22    21    1
   128    22    24   ar
   129    21    18    1
   130    12    13   ar
   131    12    11    1
   132    26    24   ar
   133    11     8    1
   134    17    18    1
   135    18    19    1
   136     8     9    1
   137     8     7    1
   138     9    10    2
   139    19    20    2
