@<TRIPOS>MOLECULE
tmp/1ys1A00.pdb
 175 166 0 0 0
SMALL
GASTEIGER

@<TRIPOS>ATOM
      1  N          8.4110    4.1240   14.2540 N.3    17  LEU17      -0.1231
      2  CA         8.2030    4.9940   13.1090 C.3    17  LEU17       0.1693
      3  C          7.7360    4.2010   11.9000 C.2    17  LEU17       0.2592
      4  O          8.2460    3.1200   11.6290 O.2    17  LEU17      -0.2718
      5  CB         9.5290    5.6650   12.7710 C.3    17  LEU17       0.0284
      6  CG         9.5390    6.6760   11.6310 C.3    17  LEU17       0.0019
      7  CD1        8.8760    7.9650   12.0360 C.3    17  LEU17       0.0001
      8  CD2       10.9630    6.9420   11.1810 C.3    17  LEU17       0.0001
      9  N          6.7930    4.7960   11.1680 N.am   18  THR18      -0.1953
     10  CA         6.0930    4.2420    9.9950 C.3    18  THR18       0.1897
     11  C          5.0300    3.2260   10.3300 C.2    18  THR18       0.2313
     12  O          4.2250    2.8750    9.4560 O.2    18  THR18      -0.2863
     13  CB         7.0030    3.5980    8.9110 C.3    18  THR18       0.1794
     14  OG1        7.3840    2.2650    9.3050 O.3    18  THR18      -0.2208
     15  CG2        8.2770    4.3820    8.6260 C.3    18  THR18       0.0378
     16  N          0.4460   -3.2940    8.3500 N.3    23  TYR23      -0.1241
     17  CA         0.4810   -2.3820    7.2060 C.3    23  TYR23       0.1605
     18  C         -0.5800   -2.7540    6.1720 C.2    23  TYR23       0.2264
     19  O         -0.6200   -3.8930    5.6930 O.2    23  TYR23      -0.2867
     20  CB         1.8420   -2.4060    6.5160 C.3    23  TYR23       0.0534
     21  CG         2.9750   -1.8070    7.3150 C.ar   23  TYR23      -0.0201
     22  CD1        3.7300   -2.5900    8.1710 C.ar   23  TYR23      -0.0009
     23  CD2        3.3100   -0.4600    7.1990 C.ar   23  TYR23      -0.0009
     24  CE1        4.7790   -2.0550    8.9000 C.ar   23  TYR23       0.0417
     25  CE2        4.3620    0.0830    7.9220 C.ar   23  TYR23       0.0417
     26  CZ         5.0950   -0.7240    8.7700 C.ar   23  TYR23       0.1957
     27  OH         6.1400   -0.2200    9.5090 O.3    23  TYR23      -0.2866
     28  N          3.6360   -5.8310   11.4190 N.3    29  TYR29      -0.1241
     29  CA         4.8890   -5.1800   11.7770 C.3    29  TYR29       0.1605
     30  C          5.8070   -6.1790   12.4840 C.2    29  TYR29       0.2264
     31  O          6.9780   -6.3020   12.1520 O.2    29  TYR29      -0.2867
     32  CB         4.5840   -3.9910   12.6750 C.3    29  TYR29       0.0534
     33  CG         5.7630   -3.1390   13.0990 C.ar   29  TYR29      -0.0201
     34  CD1        6.5540   -3.4900   14.1980 C.ar   29  TYR29      -0.0009
     35  CD2        6.0610   -1.9540   12.4370 C.ar   29  TYR29      -0.0009
     36  CE1        7.6030   -2.6820   14.6220 C.ar   29  TYR29       0.0417
     37  CE2        7.1140   -1.1360   12.8500 C.ar   29  TYR29       0.0417
     38  CZ         7.8840   -1.5150   13.9460 C.ar   29  TYR29       0.1957
     39  OH         8.9060   -0.6940   14.3630 O.3    29  TYR29      -0.2866
     40  N          9.8800   -1.5800   19.8590 N.3    86  HIS86      -0.1226
     41  CA        10.9160   -1.5520   18.8390 C.3    86  HIS86       0.1752
     42  C         11.1260   -0.1350   18.3720 C.2    86  HIS86       0.2597
     43  O         10.1580    0.5780   18.0780 O.2    86  HIS86      -0.2718
     44  CB        10.5110   -2.3970   17.6410 C.3    86  HIS86       0.0759
     45  CG        11.4840   -2.3600   16.5080 C.ar   86  HIS86       0.0818
     46  ND1       11.1230   -1.9330   15.2480 N.ar   86  HIS86      -0.2268
     47  CD2       12.7890   -2.7140   16.4400 C.ar   86  HIS86       0.1154
     48  CE1       12.1720   -2.0460   14.4500 C.ar   86  HIS86       0.1986
     49  NE2       13.1980   -2.5060   15.1490 N.ar   86  HIS86      -0.2212
     50  N         12.3850    0.2670   18.2630 N.am   87  SER87      -0.1938
     51  CA        12.7090    1.5710   17.7110 C.3    87  SER87       0.2055
     52  C         11.9590    2.6470   18.5260 C.2    87  SER87       0.2642
     53  O         12.0490    2.6280   19.7590 O.2    87  SER87      -0.2714
     54  CB        12.4290    1.5720   16.2080 C.3    87  SER87       0.2130
     55  OG        13.1010    2.6600   15.6070 O.3    87  SER87      -0.2179
     56  N         11.2490    3.5750   17.8940 N.am   88  GLN88      -0.1976
     57  CA        10.5450    4.6200   18.6320 C.3    88  GLN88       0.1601
     58  C          9.5420    4.0540   19.6380 C.2    88  GLN88       0.2287
     59  O          9.2410    4.7040   20.6320 O.2    88  GLN88      -0.2864
     60  CB         9.8390    5.5790   17.6620 C.3    88  GLN88       0.0394
     61  CG         9.3130    6.8320   18.3270 C.3    88  GLN88       0.0908
     62  CD         8.6000    7.7810   17.3900 C.2    88  GLN88       0.2608
     63  OE1        8.1240    8.8480   17.8310 O.2    88  GLN88      -0.2717
     64  NE2        8.5190    7.4340   16.1280 N.am   88  GLN88      -0.0878
     65  N         16.1830    4.2580   19.7540 N.3   113  PRO113     -0.2116
     66  CA        17.1080    5.3940   19.7780 C.3   113  PRO113      0.1372
     67  C         16.8700    6.2920   20.9980 C.2   113  PRO113      0.2244
     68  O         16.3250    7.4000   20.8780 O.2   113  PRO113     -0.2868
     69  CB        16.8130    6.1050   18.4490 C.3   113  PRO113      0.0268
     70  CG        15.3730    5.8510   18.2140 C.3   113  PRO113      0.0207
     71  CD        15.1130    4.4490   18.7570 C.3   113  PRO113      0.0892
     72  N         18.9520    9.4060   16.5600 N.3   117  SER117     -0.1217
     73  CA        19.6170    8.7790   15.4250 C.3   117  SER117      0.1889
     74  C         20.3610    9.8070   14.5970 C.2   117  SER117      0.2288
     75  O         19.7770   10.8170   14.1820 O.2   117  SER117     -0.2866
     76  CB        18.5800    8.1090   14.5360 C.3   117  SER117      0.2089
     77  OG        19.1500    7.7150   13.3010 O.3   117  SER117     -0.2183
     78  N         21.0210    9.3360   11.6480 N.3   119  PHE119     -0.1227
     79  CA        20.3230    9.3350   10.3700 C.3   119  PHE119      0.1736
     80  C         19.1640   10.3410   10.3360 C.2   119  PHE119      0.2595
     81  O         18.9260   10.9780    9.3110 O.2   119  PHE119     -0.2718
     82  CB        19.8500    7.9380    9.9490 C.3   119  PHE119      0.0547
     83  CG        19.6390    7.8350    8.4630 C.ar  119  PHE119     -0.0202
     84  CD1       20.7270    7.7480    7.6020 C.ar  119  PHE119     -0.0042
     85  CD2       18.3740    7.9090    7.9190 C.ar  119  PHE119     -0.0042
     86  CE1       20.5470    7.7070    6.2170 C.ar  119  PHE119     -0.0003
     87  CE2       18.1930    7.8580    6.5310 C.ar  119  PHE119     -0.0003
     88  CZ        19.2900    7.7650    5.6930 C.ar  119  PHE119     -0.0000
     89  N         18.4460   10.4940   11.4440 N.am  120  ALA120     -0.1980
     90  CA        17.4660   11.5680   11.5620 C.3   120  ALA120      0.1597
     91  C         18.1490   12.9390   11.5030 C.2   120  ALA120      0.2287
     92  O         17.6360   13.8630   10.8700 O.2   120  ALA120     -0.2864
     93  CB        16.6600   11.4280   12.8470 C.3   120  ALA120      0.0319
     94  N         18.7860   13.5690    7.7890 N.3   123  VAL123     -0.1245
     95  CA        17.6150   13.9060    6.9930 C.3   123  VAL123      0.1561
     96  C         17.1100   15.3140    7.3260 C.2   123  VAL123      0.2260
     97  O         16.7530   16.0830    6.4260 O.2   123  VAL123     -0.2867
     98  CB        16.4990   12.8510    7.1800 C.3   123  VAL123      0.0252
     99  CG1       15.2060   13.2910    6.5250 C.3   123  VAL123      0.0019
    100  CG2       16.9420   11.5150    6.6150 C.3   123  VAL123      0.0019
    101  N         10.1820   13.1330   12.6680 N.3   164  LEU164     -0.1245
    102  CA        11.5850   13.3060   12.3020 C.3   164  LEU164      0.1561
    103  C         12.3230   14.0720   13.3880 C.2   164  LEU164      0.2260
    104  O         13.3830   13.6460   13.8600 O.2   164  LEU164     -0.2867
    105  CB        11.7090   14.0360   10.9670 C.3   164  LEU164      0.0270
    106  CG        13.1340   14.3930   10.5280 C.3   164  LEU164      0.0019
    107  CD1       14.0240   13.1670   10.4180 C.3   164  LEU164      0.0001
    108  CD2       13.0880   15.1370    9.2040 C.3   164  LEU164      0.0001
    109  N         13.2190   12.1810   16.5870 N.3   167  LEU167     -0.1245
    110  CA        14.2580   11.1690   16.4960 C.3   167  LEU167      0.1561
    111  C         15.6630   11.7310   16.3110 C.2   167  LEU167      0.2260
    112  O         16.6200   10.9630   16.2850 O.2   167  LEU167     -0.2867
    113  CB        13.9080   10.2020   15.3640 C.3   167  LEU167      0.0270
    114  CG        12.6220    9.4120   15.6280 C.3   167  LEU167      0.0019
    115  CD1       12.1510    8.6940   14.3790 C.3   167  LEU167      0.0001
    116  CD2       12.8170    8.4260   16.7760 C.3   167  LEU167      0.0001
    117  N         15.4240   -4.3480    2.3670 N.3   244  SER244     -0.1217
    118  CA        15.9230   -3.5840    3.5040 C.3   244  SER244      0.1889
    119  C         17.3650   -3.9240    3.8800 C.2   244  SER244      0.2288
    120  O         18.0160   -3.1140    4.5490 O.2   244  SER244     -0.2866
    121  CB        15.0060   -3.7030    4.7280 C.3   244  SER244      0.2089
    122  OG        15.0670   -4.9830    5.3340 O.3   244  SER244     -0.2183
    123  N         19.5350   -1.5370    1.8660 N.3   247  ALA247     -0.1231
    124  CA        19.1250   -0.1820    2.2360 C.3   247  ALA247      0.1694
    125  C         19.7100    0.2150    3.5960 C.2   247  ALA247      0.2591
    126  O         20.2290    1.3180    3.7450 O.2   247  ALA247     -0.2718
    127  CB        17.6160   -0.0590    2.2560 C.3   247  ALA247      0.0304
    128  N         19.6330   -0.6970    4.5670 N.am  248  LEU248     -0.1980
    129  CA        20.1250   -0.4270    5.9100 C.3   248  LEU248      0.1596
    130  C         21.6450   -0.4680    5.9710 C.2   248  LEU248      0.2287
    131  O         22.2400    0.1890    6.8140 O.2   248  LEU248     -0.2864
    132  CB        19.4810   -1.3730    6.9240 C.3   248  LEU248      0.0297
    133  CG        18.0090   -1.0480    7.1970 C.3   248  LEU248      0.0022
    134  CD1       17.2860   -2.2340    7.8020 C.3   248  LEU248      0.0001
    135  CD2       17.8740    0.1850    8.0930 C.3   248  LEU248      0.0001
    136  N         20.0640    2.3730   11.4290 N.3   266  VAL266     -0.1231
    137  CA        19.4610    3.6360   11.8430 C.3   266  VAL266      0.1692
    138  C         19.5840    3.9570   13.3370 C.2   266  VAL266      0.2591
    139  O         19.3110    5.0930   13.7190 O.2   266  VAL266     -0.2718
    140  CB        17.9780    3.7340   11.4150 C.3   266  VAL266      0.0266
    141  CG1       17.8620    3.9840    9.9110 C.3   266  VAL266      0.0020
    142  CG2       17.2100    2.5020   11.8300 C.3   266  VAL266      0.0020
    143  N         20.0300    3.0070   14.1670 N.am  267  VAL267     -0.1980
    144  CA        20.2050    3.2460   15.6000 C.3   267  VAL267      0.1595
    145  C         21.5660    2.6910   16.0140 C.2   267  VAL267      0.2287
    146  O         21.8760    1.5230   15.7440 O.2   267  VAL267     -0.2864
    147  CB        19.0950    2.5710   16.4280 C.3   267  VAL267      0.0276
    148  CG1       19.2980    2.8380   17.9180 C.3   267  VAL267      0.0022
    149  CG2       17.7260    3.0520   15.9700 C.3   267  VAL267      0.0022
    150  N         18.1800   -3.2250   11.5120 N.3   286  HIS286     -0.1226
    151  CA        17.0710   -2.7120   12.2900 C.3   286  HIS286      0.1752
    152  C         15.7960   -3.5210   12.0630 C.2   286  HIS286      0.2595
    153  O         15.0090   -3.7130   12.9850 O.2   286  HIS286     -0.2718
    154  CB        16.8430   -1.2490   11.9280 C.3   286  HIS286      0.0759
    155  CG        15.8980   -0.5490   12.8450 C.ar  286  HIS286      0.0818
    156  ND1       16.2480   -0.1650   14.1200 N.ar  286  HIS286     -0.2268
    157  CD2       14.6070   -0.1760   12.6760 C.ar  286  HIS286      0.1154
    158  CE1       15.2100    0.4330   14.6870 C.ar  286  HIS286      0.1986
    159  NE2       14.1980    0.4360   13.8360 N.ar  286  HIS286     -0.2212
    160  N         15.5740   -3.9650   10.8250 N.am  287  LEU287     -0.1980
    161  CA        14.3720   -4.7330   10.5110 C.3   287  LEU287      0.1596
    162  C         14.4990   -6.2100   10.8860 C.2   287  LEU287      0.2287
    163  O         13.4930   -6.8430   11.1830 O.2   287  LEU287     -0.2864
    164  CB        13.9640   -4.5580    9.0470 C.3   287  LEU287      0.0297
    165  CG        12.8670   -3.5030    8.8570 C.3   287  LEU287      0.0022
    166  CD1       13.1540   -2.1760    9.5530 C.3   287  LEU287      0.0001
    167  CD2       12.5870   -3.2770    7.3910 C.3   287  LEU287      0.0001
    168  N         12.7580   -7.2690   14.1650 N.3   290  ILE290     -0.1245
    169  CA        11.3260   -7.5620   14.1700 C.3   290  ILE290      0.1561
    170  C         10.9720   -8.6140   13.1090 C.2   290  ILE290      0.2260
    171  O          9.8290   -8.6940   12.6540 O.2   290  ILE290     -0.2867
    172  CB        10.4860   -6.2640   14.0100 C.3   290  ILE290      0.0252
    173  CG1       10.9500   -5.4330   12.8150 C.3   290  ILE290      0.0019
    174  CG2       10.5360   -5.4440   15.2890 C.3   290  ILE290      0.0019
    175  CD1        9.9810   -4.3320   12.4310 C.3   290  ILE290      0.0001
@<TRIPOS>BOND
     1   123   124    1
     2   124   127    1
     3   124   125    1
     4   117   118    1
     5   118   119    1
     6   118   121    1
     7   125   126    2
     8   125   128   am
     9   119   120    2
    10   128   129    1
    11   121   122    1
    12    19    18    2
    13    88    86   ar
    14    88    87   ar
    15   129   130    1
    16   129   132    1
    17   130   131    2
    18    18    17    1
    19    86    84   ar
    20    97    96    2
    21    20    17    1
    22    20    21    1
    23    99    98    1
    24    87    85   ar
    25   100    98    1
    26   132   133    1
    27    95    98    1
    28    95    96    1
    29    95    94    1
    30   133   134    1
    31   133   135    1
    32    23    21   ar
    33    23    25   ar
    34    17    16    1
    35    21    22   ar
    36   167   165    1
    37    84    83   ar
    38    85    83   ar
    39    25    26   ar
    40    22    24   ar
    41    83    82    1
    42    15    13    1
    43    26    24   ar
    44    26    27    1
    45   165   164    1
    46   165   166    1
    47    13    14    1
    48    13    10    1
    49   164   161    1
    50   108   106    1
    51    81    80    2
    52    12    11    2
    53   141   140    1
    54    82    79    1
    55    10    11    1
    56    10     9    1
    57    80    79    1
    58    80    89   am
    59    79    78    1
    60   107   106    1
    61   161   160    1
    62   161   162    1
    63   106   105    1
    64   160   152   am
    65    92    91    2
    66   162   163    2
    67   105   102    1
    68     9     3   am
    69     8     6    1
    70   140   142    1
    71   140   137    1
    72    28    29    1
    73   136   137    1
    74    89    90    1
    75    91    90    1
    76   150   151    1
    77    90    93    1
    78     4     3    2
    79     6     7    1
    80     6     5    1
    81    29    30    1
    82    29    32    1
    83   137   138    1
    84     3     2    1
    85   154   151    1
    86   154   155    1
    87   152   151    1
    88   152   153    2
    89    31    30    2
    90   102   101    1
    91   102   103    1
    92   175   173    1
    93    35    37   ar
    94    35    33   ar
    95   171   170    2
    96    32    33    1
    97   157   155   ar
    98   157   159   ar
    99     5     2    1
   100   173   172    1
   101   155   156   ar
   102    37    38   ar
   103    33    34   ar
   104   170   169    1
   105     2     1    1
   106    77    76    1
   107   138   139    2
   108   138   143   am
   109   103   104    2
   110   159   158   ar
   111    38    39    1
   112    38    36   ar
   113   172   169    1
   114   172   174    1
   115   156   158   ar
   116   168   169    1
   117   143   144    1
   118    75    74    2
   119    34    36   ar
   120   115   114    1
   121    48    49   ar
   122    48    46   ar
   123    76    73    1
   124    74    73    1
   125    49    47   ar
   126    46    45   ar
   127   113   114    1
   128   113   110    1
   129    73    72    1
   130   144   145    1
   131   144   147    1
   132    55    54    1
   133   114   116    1
   134   146   145    2
   135   149   147    1
   136    64    62   am
   137    54    51    1
   138   112   111    2
   139   111   110    1
   140   147   148    1
   141    47    45   ar
   142   110   109    1
   143    45    44    1
   144    62    63    2
   145    62    61    1
   146    44    41    1
   147    60    61    1
   148    60    57    1
   149    51    50    1
   150    51    52    1
   151    56    52   am
   152    56    57    1
   153    43    42    2
   154    70    69    1
   155    70    71    1
   156    50    42   am
   157    42    41    1
   158    69    66    1
   159    52    53    2
   160    57    58    1
   161    71    65    1
   162    41    40    1
   163    58    59    2
   164    65    66    1
   165    66    67    1
   166    68    67    2
