@<TRIPOS>MOLECULE
tmp/1ys3B01.pdb
 66 63 0 0 0
SMALL
GASTEIGER

@<TRIPOS>ATOM
      1  N          7.9040    2.5000  -20.8570 N.3    37  CYS37      -0.1221
      2  CA         8.6230    1.6450  -19.9120 C.3    37  CYS37       0.1808
      3  C          7.7110    1.5610  -18.6730 C.2    37  CYS37       0.2601
      4  O          7.3750    2.5830  -18.0960 O.2    37  CYS37      -0.2717
      5  CB         9.9580    2.2980  -19.4780 C.3    37  CYS37       0.0970
      6  SG        10.7210    1.4960  -18.0560 S.3    37  CYS37      -0.0800
      7  N          7.3990    0.3520  -18.2370 N.am   38  ILE38      -0.1965
      8  CA         6.6860    0.1390  -16.9740 C.3    38  ILE38       0.1727
      9  C          7.6310   -0.3600  -15.8890 C.2    38  ILE38       0.2616
     10  O          8.3230   -1.3810  -16.0210 O.2    38  ILE38      -0.2715
     11  CB         5.4560   -0.8400  -17.1130 C.3    38  ILE38       0.0290
     12  CG1        4.6580   -0.5980  -18.4230 C.3    38  ILE38       0.0022
     13  CG2        4.5620   -0.8260  -15.8410 C.3    38  ILE38       0.0023
     14  CD1        4.0310    0.7420  -18.6000 C.3    38  ILE38       0.0001
     15  N          7.6760    0.3520  -14.7640 N.am   39  ILE39      -0.1977
     16  CA         8.3510   -0.2230  -13.6110 C.3    39  ILE39       0.1596
     17  C          7.3710   -0.4460  -12.4840 C.2    39  ILE39       0.2287
     18  O          6.1880   -0.1220  -12.5990 O.2    39  ILE39      -0.2864
     19  CB         9.5470    0.6780  -13.1050 C.3    39  ILE39       0.0276
     20  CG1        9.0650    2.0450  -12.6200 C.3    39  ILE39       0.0022
     21  CG2       10.6670    0.7470  -14.1800 C.3    39  ILE39       0.0022
     22  CD1       10.2490    2.8550  -11.9120 C.3    39  ILE39       0.0001
     23  N         15.0980    2.9160  -21.5990 N.3    72  SER72      -0.1202
     24  CA        14.9000    1.5700  -21.0620 C.3    72  SER72       0.2020
     25  C         16.0790    0.6510  -21.4130 C.2    72  SER72       0.2619
     26  O         16.6910    0.8040  -22.4820 O.2    72  SER72      -0.2717
     27  CB        13.7190    0.9230  -21.7760 C.3    72  SER72       0.2103
     28  OG        12.5610    1.5550  -21.4530 O.3    72  SER72      -0.2182
     29  N         16.3240   -0.3380  -20.5710 N.am   73  SER73      -0.1937
     30  CA        17.3100   -1.3820  -20.8620 C.3    73  SER73       0.2055
     31  C         16.9220   -2.5660  -20.0320 C.2    73  SER73       0.2642
     32  O         15.9700   -2.4980  -19.2520 O.2    73  SER73      -0.2714
     33  CB        18.7480   -0.8780  -20.4930 C.3    73  SER73       0.2130
     34  OG        18.8230   -0.6090  -19.1060 O.3    73  SER73      -0.2179
     35  N         17.6590   -3.6580  -20.1610 N.am   74  ARG74      -0.1977
     36  CA        17.4240   -4.8350  -19.3550 C.3    74  ARG74       0.1597
     37  C         17.5770   -4.5570  -17.8590 C.2    74  ARG74       0.2287
     38  O         16.9480   -5.2150  -17.0520 O.2    74  ARG74      -0.2864
     39  CB        18.3580   -5.9780  -19.7990 C.3    74  ARG74       0.0334
     40  CG        18.1000   -6.3640  -21.2920 C.3    74  ARG74       0.0492
     41  CD        19.0690   -7.4360  -21.7410 C.3    74  ARG74       0.2205
     42  NE        20.3810   -6.9130  -22.1240 N.pl3  74  ARG74      -0.0865
     43  CZ        21.4000   -7.6960  -22.4760 C.cat  74  ARG74       0.5346
     44  NH1       21.2420   -9.0100  -22.4930 N.pl3  74  ARG74       0.1354
     45  NH2       22.5750   -7.1780  -22.8140 N.pl3  74  ARG74       0.1354
     46  N         16.7700   -1.6310  -16.2870 N.3    76  GLY76      -0.1225
     47  CA        15.5680   -0.8310  -15.7890 C.3    76  GLY76       0.1811
     48  C         15.3960    0.4320  -16.6030 C.2    76  GLY76       0.2280
     49  O         15.4360    0.4210  -17.8330 O.2    76  GLY76      -0.2866
     50  N         14.6350   -2.3540  -12.8720 N.3   136  GLY136     -0.1210
     51  CA        13.3360   -2.7610  -13.4300 C.3   136  GLY136      0.1940
     52  C         12.6710   -3.8370  -12.5750 C.2   136  GLY136      0.2454
     53  O         13.3120   -4.4300  -11.6790 O.2   136  GLY136     -0.2732
     54  N         11.3950   -4.1280  -12.8890 N.am  137  PRO137     -0.2717
     55  CA        10.5620   -4.9860  -12.0280 C.3   137  PRO137      0.1535
     56  C         10.7950   -6.4490  -12.3300 C.2   137  PRO137      0.2596
     57  O         10.4390   -7.3240  -11.5600 O.2   137  PRO137     -0.2716
     58  CB         9.1320   -4.5410  -12.3690 C.3   137  PRO137      0.0310
     59  CG         9.1980   -4.1530  -13.8550 C.3   137  PRO137      0.0237
     60  CD        10.6280   -3.5240  -14.0220 C.3   137  PRO137      0.0939
     61  N         11.5910   -6.6170  -13.3770 N.am  138  SER138     -0.2004
     62  CA        11.6640   -7.7500  -14.2990 C.3   138  SER138      0.1610
     63  C         10.3980   -8.2030  -15.0440 C.3   138  SER138      0.2063
     64  O          9.9310   -8.9910  -14.2720 O.3   138  SER138     -0.2184
     65  CB        12.6630   -8.8270  -13.9120 C.3   138  SER138      0.2063
     66  OG        13.5060   -8.9930  -15.0620 O.3   138  SER138     -0.2184
@<TRIPOS>BOND
     1    45    43    1
     2    44    43    1
     3    26    25    2
     4    43    42    2
     5    42    41    1
     6    27    28    1
     7    27    24    1
     8    41    40    1
     9    23    24    1
    10    25    24    1
    11    25    29   am
    12    40    39    1
    13    30    29    1
    14    30    33    1
    15    30    31    1
    16     1     2    1
    17    33    34    1
    18    35    31   am
    19    35    36    1
    20    31    32    2
    21     2     5    1
    22     2     3    1
    23    39    36    1
    24     5     6    1
    25    36    37    1
    26     3     7   am
    27     3     4    2
    28    14    12    1
    29    12    11    1
    30     7     8    1
    31    37    38    2
    32    49    48    2
    33    11     8    1
    34    11    13    1
    35     8     9    1
    36    48    47    1
    37    46    47    1
    38    10     9    2
    39     9    15   am
    40    66    65    1
    41    63    62    1
    42    63    64    1
    43    15    16    1
    44    62    65    1
    45    62    61    1
    46    21    19    1
    47    60    59    1
    48    60    54    1
    49    59    58    1
    50    16    19    1
    51    16    17    1
    52    51    50    1
    53    51    52    1
    54    61    56   am
    55    19    20    1
    56    54    52   am
    57    54    55    1
    58    20    22    1
    59    18    17    2
    60    52    53    2
    61    58    55    1
    62    56    55    1
    63    56    57    2
