@<TRIPOS>MOLECULE
tmp/1ys4B01.pdb
 96 88 0 0 0
SMALL
GASTEIGER

@<TRIPOS>ATOM
      1  N          6.3060   23.5020  167.8700 N.3   104  ASN104     -0.1225
      2  CA         6.8290   24.3870  166.8280 C.3   104  ASN104      0.1785
      3  C          6.0660   24.2020  165.5120 C.2   104  ASN104      0.2597
      4  O          6.2420   24.9720  164.5700 O.2   104  ASN104     -0.2718
      5  CB         8.3320   24.1340  166.6280 C.3   104  ASN104      0.1169
      6  CG         8.9250   24.9490  165.4820 C.2   104  ASN104      0.2627
      7  OD1        8.9010   26.1790  165.4910 O.2   104  ASN104     -0.2716
      8  ND2        9.4680   24.2560  164.4930 N.am  104  ASN104     -0.0877
      9  N          5.2160   23.1800  165.4570 N.am  105  ALA105     -0.1966
     10  CA         4.3830   22.9260  164.2810 C.3   105  ALA105      0.1728
     11  C          3.3040   23.9940  164.1120 C.2   105  ALA105      0.2616
     12  O          2.7680   24.5150  165.0980 O.2   105  ALA105     -0.2715
     13  CB         3.7640   21.5540  164.3640 C.3   105  ALA105      0.0334
     14  N          2.9990   24.3170  162.8570 N.am  106  SER106     -0.1950
     15  CA         2.0380   25.3690  162.5320 C.3   106  SER106      0.1924
     16  C          0.5850   24.9550  162.7600 C.2   106  SER106      0.2314
     17  O         -0.3010   25.8090  162.7940 O.2   106  SER106     -0.2863
     18  CB         2.2200   25.8340  161.0830 C.3   106  SER106      0.2116
     19  OG         1.8010   24.8370  160.1670 O.3   106  SER106     -0.2180
     20  N         -1.4150   26.7560  165.7590 N.3   109  ARG109     -0.1245
     21  CA        -1.0570   28.1530  166.0320 C.3   109  ARG109      0.1563
     22  C         -2.2280   29.1290  165.9760 C.2   109  ARG109      0.2260
     23  O         -2.3300   30.0180  166.8170 O.2   109  ARG109     -0.2867
     24  CB         0.0310   28.6300  165.0710 C.3   109  ARG109      0.0307
     25  CG         1.4000   28.0360  165.3200 C.3   109  ARG109      0.0489
     26  CD         2.4020   28.6390  164.3640 C.3   109  ARG109      0.2205
     27  NE         3.7070   27.9970  164.4540 N.pl3 109  ARG109     -0.0865
     28  CZ         4.5660   27.9150  163.4450 C.cat 109  ARG109      0.5346
     29  NH1        4.2530   28.4280  162.2630 N.pl3 109  ARG109      0.1354
     30  NH2        5.7340   27.3160  163.6160 N.pl3 109  ARG109      0.1354
     31  N          6.0810   30.8770  163.9560 N.3   146  ASN146     -0.1225
     32  CA         6.9990   30.7620  162.8310 C.3   146  ASN146      0.1785
     33  C          8.2910   31.5540  163.1020 C.2   146  ASN146      0.2597
     34  O          8.2460   32.6660  163.6350 O.2   146  ASN146     -0.2718
     35  CB         6.2680   31.2670  161.5730 C.3   146  ASN146      0.1169
     36  CG         7.2010   31.5880  160.4230 C.2   146  ASN146      0.2627
     37  OD1        7.5760   32.7490  160.2190 O.2   146  ASN146     -0.2716
     38  ND2        7.5670   30.5660  159.6510 N.am  146  ASN146     -0.0877
     39  N          9.4330   30.9670  162.7460 N.am  147  CYS147     -0.1970
     40  CA        10.7540   31.5580  163.0210 C.3   147  CYS147      0.1712
     41  C         10.9160   33.0030  162.5420 C.2   147  CYS147      0.2296
     42  O         11.3690   33.8590  163.2990 O.2   147  CYS147     -0.2864
     43  CB        11.8620   30.6860  162.4330 C.3   147  CYS147      0.0983
     44  SG        11.5780   30.2480  160.7150 S.3   147  CYS147     -0.0798
     45  N         16.5190   34.1490  154.3700 N.3   172  GLN172     -0.1245
     46  CA        16.3750   33.0340  155.2970 C.3   172  GLN172      0.1566
     47  C         17.3330   31.8780  155.0540 C.2   172  GLN172      0.2260
     48  O         17.5730   31.4670  153.9150 O.2   172  GLN172     -0.2867
     49  CB        14.9200   32.5480  155.3350 C.3   172  GLN172      0.0367
     50  CG        13.9560   33.6010  155.8770 C.3   172  GLN172      0.0905
     51  CD        12.5050   33.1470  155.9210 C.2   172  GLN172      0.2608
     52  OE1       11.6100   33.8890  155.5260 O.2   172  GLN172     -0.2717
     53  NE2       12.2650   31.9320  156.4180 N.am  172  GLN172     -0.0878
     54  N         16.0690   25.2150  158.8300 N.3   176  GLY176     -0.1225
     55  CA        14.7000   24.9250  159.2530 C.3   176  GLY176      0.1811
     56  C         13.9300   24.0040  158.3230 C.2   176  GLY176      0.2280
     57  O         12.9830   23.3350  158.7530 O.2   176  GLY176     -0.2866
     58  N          5.2660   31.3780  153.9430 N.3   197  GLU197     -0.1245
     59  CA         6.0610   32.1410  154.9090 C.3   197  GLU197      0.1567
     60  C          5.5480   33.5700  155.1030 C.2   197  GLU197      0.2260
     61  O          5.4360   34.0440  156.2330 O.2   197  GLU197     -0.2867
     62  CB         7.5460   32.1400  154.5180 C.3   197  GLU197      0.0388
     63  CG         8.5010   32.5560  155.6390 C.3   197  GLU197      0.1160
     64  CD         8.7570   31.4590  156.6680 C.2   197  GLU197      0.3649
     65  OE1        9.5640   31.6990  157.5850 O.co2 197  GLU197     -0.2457
     66  OE2        8.1650   30.3610  156.5720 O.co2 197  GLU197     -0.2457
     67  N          2.1680   33.5110  156.9370 N.3   200  LYS200     -0.1245
     68  CA         2.3970   33.2690  158.3610 C.3   200  LYS200      0.1561
     69  C          2.8530   34.5290  159.0830 C.2   200  LYS200      0.2260
     70  O          2.3300   34.8580  160.1420 O.2   200  LYS200     -0.2867
     71  CB         3.4060   32.1380  158.5700 C.3   200  LYS200      0.0271
     72  CG         2.8340   30.7490  158.3440 C.3   200  LYS200      0.0035
     73  CD         3.9320   29.7090  158.3480 C.3   200  LYS200      0.0206
     74  CE         3.3860   28.3250  158.0670 C.3   200  LYS200      0.1093
     75  NZ         4.4880   27.3620  157.7960 N.3   200  LYS200     -0.1314
     76  N         14.9520   32.7550  150.3050 N.3   229  ARG229     -0.1245
     77  CA        15.8850   31.7540  150.7930 C.3   229  ARG229      0.1563
     78  C         17.2780   31.9830  150.2140 C.2   229  ARG229      0.2260
     79  O         17.4400   32.0720  148.9940 O.2   229  ARG229     -0.2867
     80  CB        15.3850   30.3570  150.4360 C.3   229  ARG229      0.0307
     81  CG        16.2680   29.2460  150.9510 C.3   229  ARG229      0.0489
     82  CD        15.4190   28.2050  151.6100 C.3   229  ARG229      0.2205
     83  NE        15.1720   28.5100  153.0100 N.pl3 229  ARG229     -0.0865
     84  CZ        14.1160   28.0900  153.6990 C.cat 229  ARG229      0.5346
     85  NH1       13.1670   27.3610  153.1180 N.pl3 229  ARG229      0.1354
     86  NH2       14.0040   28.4230  154.9770 N.pl3 229  ARG229      0.1354
     87  N         18.3200   33.7830  160.2850 N.3   236  HIS236     -0.1241
     88  CA        17.4500   34.5420  159.3880 C.3   236  HIS236      0.1621
     89  C         17.6710   36.0350  159.5660 C.2   236  HIS236      0.2264
     90  O         17.6310   36.5460  160.6850 O.2   236  HIS236     -0.2867
     91  CB        15.9700   34.2050  159.6200 C.3   236  HIS236      0.0745
     92  CG        15.5950   32.8120  159.2190 C.ar  236  HIS236      0.0817
     93  ND1       14.3580   32.2660  159.4910 N.ar  236  HIS236     -0.2268
     94  CD2       16.3000   31.8460  158.5850 C.ar  236  HIS236      0.1154
     95  CE1       14.3120   31.0310  159.0250 C.ar  236  HIS236      0.1986
     96  NE2       15.4780   30.7520  158.4700 N.ar  236  HIS236     -0.2212
@<TRIPOS>BOND
     1    79    78    2
     2    78    77    1
     3    76    77    1
     4    80    77    1
     5    80    81    1
     6    81    82    1
     7    82    83    1
     8    83    84    2
     9    85    84    1
    10    84    86    1
    11    48    47    2
    12    58    59    1
    13    45    46    1
    14    62    59    1
    15    62    63    1
    16    59    60    1
    17    47    46    1
    18    60    61    2
    19    46    49    1
    20    49    50    1
    21    52    51    2
    22    63    64    1
    23    50    51    1
    24    51    53   am
    25    66    64   ar
    26    64    65   ar
    27    67    68    1
    28    75    74    1
    29    74    73    1
    30    56    57    2
    31    56    55    1
    32    72    73    1
    33    72    71    1
    34    68    71    1
    35    68    69    1
    36    96    94   ar
    37    96    95   ar
    38    94    92   ar
    39    54    55    1
    40    95    93   ar
    41    69    70    2
    42    92    93   ar
    43    92    91    1
    44    88    89    1
    45    88    91    1
    46    88    87    1
    47    89    90    2
    48    38    36   am
    49    19    18    1
    50    37    36    2
    51    36    35    1
    52    44    43    1
    53    18    15    1
    54    35    32    1
    55    29    28    1
    56    43    40    1
    57    15    16    1
    58    15    14    1
    59    41    40    1
    60    41    42    2
    61    39    40    1
    62    39    33   am
    63    16    17    2
    64    32    33    1
    65    32    31    1
    66    14    11   am
    67    33    34    2
    68    28    30    1
    69    28    27    2
    70    11    10    1
    71    11    12    2
    72    10    13    1
    73    10     9    1
    74    26    27    1
    75    26    25    1
    76     8     6   am
    77     4     3    2
    78    24    25    1
    79    24    21    1
    80     9     3   am
    81     6     7    2
    82     6     5    1
    83     3     2    1
    84    20    21    1
    85    22    21    1
    86    22    23    2
    87     5     2    1
    88     2     1    1
