@<TRIPOS>MOLECULE
tmp/1ys7B00.pdb
 85 78 0 0 0
SMALL
GASTEIGER

@<TRIPOS>ATOM
      1  N          6.7060   35.1280   57.9780 N.3    82  ARG82      -0.1245
      2  CA         5.5940   34.5070   58.7330 C.3    82  ARG82       0.1563
      3  C          5.0500   33.2630   58.0440 C.2    82  ARG82       0.2260
      4  O          4.6390   32.2970   58.6940 O.2    82  ARG82      -0.2867
      5  CB         4.4570   35.5060   58.9620 C.3    82  ARG82       0.0307
      6  CG         3.6880   35.2460   60.2350 C.3    82  ARG82       0.0489
      7  CD         3.2600   36.5990   60.8320 C.3    82  ARG82       0.2205
      8  NE         2.7760   36.4620   62.1990 N.pl3  82  ARG82      -0.0865
      9  CZ         3.3540   36.9990   63.2680 C.cat  82  ARG82       0.5346
     10  NH1        4.4530   37.7400   63.1450 N.pl3  82  ARG82       0.1354
     11  NH2        2.8100   36.8050   64.4650 N.pl3  82  ARG82       0.1354
     12  N          6.5680   28.5910   57.2850 N.3    85  VAL85      -0.1245
     13  CA         6.5010   27.6850   58.4400 C.3    85  VAL85       0.1561
     14  C          7.4620   26.5030   58.2950 C.2    85  VAL85       0.2260
     15  O          8.3060   26.2290   59.2100 O.2    85  VAL85      -0.2867
     16  CB         5.0570   27.1300   58.6420 C.3    85  VAL85       0.0252
     17  CG1        5.0130   26.1780   59.8400 C.3    85  VAL85       0.0019
     18  CG2        4.0930   28.2450   58.8450 C.3    85  VAL85       0.0019
     19  N         11.3080   27.3690   58.8390 N.3    88  ARG88      -0.1231
     20  CA        11.8080   27.5880   60.2000 C.3    88  ARG88       0.1694
     21  C         11.7100   26.3170   61.0400 C.2    88  ARG88       0.2591
     22  O         12.6130   26.0030   61.8360 O.2    88  ARG88      -0.2718
     23  CB        11.1710   28.8130   60.8970 C.3    88  ARG88       0.0321
     24  CG         9.6770   28.7800   61.0610 C.3    88  ARG88       0.0489
     25  CD         9.2130   29.9660   61.9180 C.3    88  ARG88       0.2205
     26  NE         7.7710   30.1970   61.8210 N.pl3  88  ARG88      -0.0865
     27  CZ         7.1380   30.8460   60.8360 C.cat  88  ARG88       0.5346
     28  NH1        7.7900   31.3650   59.8140 N.pl3  88  ARG88       0.1354
     29  NH2        5.8280   31.0040   60.9010 N.pl3  88  ARG88       0.1354
     30  N         10.6580   25.5370   60.8320 N.am   89  VAL89      -0.1980
     31  CA        10.5710   24.2350   61.5430 C.3    89  VAL89       0.1595
     32  C         11.7550   23.3260   61.1420 C.2    89  VAL89       0.2287
     33  O         12.4010   22.6650   62.0060 O.2    89  VAL89      -0.2864
     34  CB         9.2230   23.5410   61.3050 C.3    89  VAL89       0.0276
     35  CG1        9.2980   22.0260   61.7010 C.3    89  VAL89       0.0022
     36  CG2        8.0650   24.2920   62.0210 C.3    89  VAL89       0.0022
     37  N         14.7440   24.5190   63.1020 N.3    92  LEU92      -0.1245
     38  CA        14.6770   24.0340   64.4810 C.3    92  LEU92       0.1561
     39  C         14.9950   22.5560   64.5360 C.2    92  LEU92       0.2260
     40  O         15.7920   22.0940   65.3760 O.2    92  LEU92      -0.2867
     41  CB        13.2900   24.3040   65.0890 C.3    92  LEU92       0.0270
     42  CG        12.9430   25.8030   65.1320 C.3    92  LEU92       0.0019
     43  CD1       11.4810   25.9180   65.5610 C.3    92  LEU92       0.0001
     44  CD2       13.8880   26.4700   66.1280 C.3    92  LEU92       0.0001
     45  N         13.5990   30.7190   67.3020 N.3    99  TYR99      -0.1241
     46  CA        13.2290   31.3560   66.0540 C.3    99  TYR99       0.1605
     47  C         12.5290   32.6760   66.3370 C.2    99  TYR99       0.2264
     48  O         11.9670   32.8990   67.4410 O.2    99  TYR99      -0.2867
     49  CB        12.3080   30.4400   65.1980 C.3    99  TYR99       0.0534
     50  CG        10.8540   30.3490   65.6940 C.ar   99  TYR99      -0.0201
     51  CD1       10.4780   29.4150   66.6580 C.ar   99  TYR99      -0.0009
     52  CD2        9.8670   31.2400   65.2300 C.ar   99  TYR99      -0.0009
     53  CE1        9.1800   29.3510   67.1450 C.ar   99  TYR99       0.0417
     54  CE2        8.5210   31.1730   65.7080 C.ar   99  TYR99       0.0417
     55  CZ         8.2050   30.2140   66.6670 C.ar   99  TYR99       0.1957
     56  OH         6.9230   30.1190   67.1630 O.3    99  TYR99      -0.2866
     57  N         10.0250   35.3770   63.8430 N.3   101  VAL101     -0.1245
     58  CA         9.3770   35.5710   62.5470 C.3   101  VAL101      0.1561
     59  C          9.4760   37.0350   62.1090 C.2   101  VAL101      0.2260
     60  O          9.2780   37.9600   62.9230 O.2   101  VAL101     -0.2867
     61  CB         7.9250   35.1240   62.6650 C.3   101  VAL101      0.0252
     62  CG1        7.1250   35.6320   61.5270 C.3   101  VAL101      0.0019
     63  CG2        7.8980   33.5900   62.7040 C.3   101  VAL101      0.0019
     64  N          5.3390   33.2070   71.4230 N.3   191  THR191     -0.1203
     65  CA         6.0480   32.2110   70.6430 C.3   191  THR191      0.1994
     66  C          5.5000   30.8090   70.8330 C.2   191  THR191      0.2617
     67  O          4.9460   30.4700   71.9130 O.2   191  THR191     -0.2717
     68  CB         7.5220   32.2050   70.9500 C.3   191  THR191      0.1784
     69  OG1        8.1530   31.2200   70.1310 O.3   191  THR191     -0.2211
     70  CG2        7.7450   31.8520   72.3950 C.3   191  THR191      0.0376
     71  N          5.6430   30.0010   69.7840 N.am  192  ASN192     -0.1974
     72  CA         5.2410   28.6050   69.8370 C.3   192  ASN192      0.1688
     73  C          6.4330   27.6790   70.0390 C.2   192  ASN192      0.2292
     74  O          6.3030   26.4340   69.9850 O.2   192  ASN192     -0.2864
     75  CB         4.4710   28.2730   68.5730 C.3   192  ASN192      0.1181
     76  CG         3.1780   29.0550   68.4910 C.2   192  ASN192      0.2629
     77  OD1        2.3800   29.0360   69.4210 O.2   192  ASN192     -0.2716
     78  ND2        2.9830   29.7870   67.4000 N.am  192  ASN192     -0.0877
     79  N          6.5370   23.4890   69.7840 N.3   196  VAL196     -0.1245
     80  CA         7.2270   22.9050   68.6470 C.3   196  VAL196      0.1561
     81  C          8.2060   21.8320   69.1420 C.2   196  VAL196      0.2260
     82  O          8.2310   20.6790   68.6890 O.2   196  VAL196     -0.2867
     83  CB         8.0200   24.0230   67.9030 C.3   196  VAL196      0.0252
     84  CG1        9.0400   23.4660   66.9700 C.3   196  VAL196      0.0019
     85  CG2        7.0580   24.9950   67.1850 C.3   196  VAL196      0.0019
@<TRIPOS>BOND
     1    12    13    1
     2     1     2    1
     3     3     4    2
     4     3     2    1
     5    14    13    1
     6    14    15    2
     7    13    16    1
     8    16    18    1
     9    16    17    1
    10     2     5    1
    11    19    20    1
    12     5     6    1
    13    28    27    1
    14    20    23    1
    15    20    21    1
    16     6     7    1
    17     7     8    1
    18    30    21   am
    19    30    31    1
    20    27    29    1
    21    27    26    2
    22    23    24    1
    23    21    22    2
    24    24    25    1
    25    32    31    1
    26    32    33    2
    27    34    31    1
    28    34    35    1
    29    34    36    1
    30    62    61    1
    31    26    25    1
    32    59    58    1
    33    59    60    2
    34     8     9    2
    35    58    61    1
    36    58    57    1
    37    61    63    1
    38    37    38    1
    39    10     9    1
    40     9    11    1
    41    38    39    1
    42    38    41    1
    43    39    40    2
    44    41    42    1
    45    42    43    1
    46    42    44    1
    47    49    50    1
    48    49    46    1
    49    52    50   ar
    50    52    54   ar
    51    50    51   ar
    52    54    55   ar
    53    46    47    1
    54    46    45    1
    55    47    48    2
    56    51    53   ar
    57    55    53   ar
    58    55    56    1
    59    84    83    1
    60    85    83    1
    61    78    76   am
    62    83    80    1
    63    76    75    1
    64    76    77    2
    65    75    72    1
    66    80    81    1
    67    80    79    1
    68    82    81    2
    69    71    72    1
    70    71    66   am
    71    72    73    1
    72    74    73    2
    73    69    68    1
    74    65    66    1
    75    65    68    1
    76    65    64    1
    77    66    67    2
    78    68    70    1
