@<TRIPOS>MOLECULE
tmp/1ysgA01.pdb
 93 91 0 0 0
SMALL
GASTEIGER

@<TRIPOS>ATOM
      1  N          5.9790    4.5530   -6.6860 N.3    57  ALA57      -0.1245
      2  CA         6.2620    3.1520   -6.2630 C.3    57  ALA57       0.1562
      3  C          5.1260    2.2340   -6.7230 C.2    57  ALA57       0.2260
      4  O          5.3260    1.0580   -6.9530 O.2    57  ALA57      -0.2867
      5  CB         6.3740    3.0940   -4.7400 C.3    57  ALA57       0.0290
      6  N          5.8870    1.0390   -9.9030 N.3    60  GLU60      -0.1231
      7  CA         7.2180    0.3950   -9.7190 C.3    60  GLU60       0.1699
      8  C          7.0390   -1.1100   -9.5060 C.2    60  GLU60       0.2592
      9  O          7.5040   -1.9130  -10.2920 O.2    60  GLU60      -0.2718
     10  CB         7.9110    1.0060   -8.5000 C.3    60  GLU60       0.0402
     11  CG         9.4210    0.7810   -8.6010 C.3    60  GLU60       0.1161
     12  CD         9.9730    1.5510   -9.8030 C.2    60  GLU60       0.3649
     13  OE1        9.2480    2.3730  -10.3390 O.co2  60  GLU60      -0.2457
     14  OE2       11.1120    1.3050  -10.1660 O.co2  60  GLU60      -0.2457
     15  N          6.3730   -1.5020   -8.4500 N.am   61  PHE61      -0.1976
     16  CA         6.1700   -2.9590   -8.1950 C.3    61  PHE61       0.1639
     17  C          5.5510   -3.6120   -9.4340 C.2    61  PHE61       0.2290
     18  O          5.8560   -4.7390   -9.7700 O.2    61  PHE61      -0.2864
     19  CB         5.2220   -3.1520   -7.0010 C.3    61  PHE61       0.0560
     20  CG         5.9930   -3.2650   -5.7000 C.ar   61  PHE61      -0.0200
     21  CD1        7.1690   -4.0280   -5.6200 C.ar   61  PHE61      -0.0042
     22  CD2        5.5150   -2.6070   -4.5610 C.ar   61  PHE61      -0.0042
     23  CE1        7.8590   -4.1240   -4.4090 C.ar   61  PHE61      -0.0003
     24  CE2        6.2080   -2.7070   -3.3520 C.ar   61  PHE61      -0.0003
     25  CZ         7.3790   -3.4630   -3.2780 C.ar   61  PHE61      -0.0000
     26  N          9.3710   -2.2170    4.0780 N.3   101  TRP101     -0.1227
     27  CA         8.8500   -1.0600    3.2960 C.3   101  TRP101      0.1737
     28  C          8.2110   -1.5670    2.0010 C.2   101  TRP101      0.2596
     29  O          7.1050   -1.1990    1.6580 O.2   101  TRP101     -0.2718
     30  CB        10.0040   -0.1140    2.9580 C.3   101  TRP101      0.0564
     31  CG        10.5130    0.5220    4.2120 C.ar  101  TRP101      0.0003
     32  CD1       11.7770    0.4100    4.6820 C.ar  101  TRP101      0.0946
     33  CD2        9.7970    1.3630    5.1610 C.ar  101  TRP101      0.0152
     34  NE1       11.8810    1.1290    5.8590 N.ar  101  TRP101     -0.2442
     35  CE2       10.6870    1.7340    6.1960 C.ar  101  TRP101      0.0810
     36  CE3        8.4730    1.8350    5.2240 C.ar  101  TRP101      0.0012
     37  CZ2       10.2790    2.5440    7.2560 C.ar  101  TRP101      0.0191
     38  CZ3        8.0590    2.6510    6.2890 C.ar  101  TRP101      0.0001
     39  CH2        8.9610    3.0050    7.3030 C.ar  101  TRP101      0.0015
     40  N          8.9000   -2.4080    1.2800 N.am  102  GLY102     -0.1957
     41  CA         8.3350   -2.9390    0.0070 C.3   102  GLY102      0.1869
     42  C          7.0450   -3.7050    0.2940 C.2   102  GLY102      0.2309
     43  O          6.0100   -3.4340   -0.2820 O.2   102  GLY102     -0.2863
     44  N          4.4360   -1.3340    0.6700 N.3   105  VAL105     -0.1245
     45  CA         4.0430   -0.4980   -0.4980 C.3   105  VAL105      0.1561
     46  C          3.2310   -1.3490   -1.4670 C.2   105  VAL105      0.2260
     47  O          2.2370   -0.9160   -2.0220 O.2   105  VAL105     -0.2867
     48  CB         5.2980    0.0150   -1.2060 C.3   105  VAL105      0.0252
     49  CG1        4.9740    0.3090   -2.6730 C.3   105  VAL105      0.0019
     50  CG2        5.7760    1.2960   -0.5260 C.3   105  VAL105      0.0019
     51  N         10.9950    5.4950    3.5890 N.3   155  PHE155     -0.1241
     52  CA        10.6320    4.9490    2.2490 C.3   155  PHE155      0.1605
     53  C         10.2380    6.0920    1.3110 C.2   155  PHE155      0.2264
     54  O         10.4010    6.0050    0.1100 O.2   155  PHE155     -0.2867
     55  CB         9.4540    3.9820    2.3900 C.3   155  PHE155      0.0534
     56  CG         8.7580    3.8440    1.0560 C.ar  155  PHE155     -0.0203
     57  CD1        9.3220    3.0490    0.0510 C.ar  155  PHE155     -0.0042
     58  CD2        7.5510    4.5140    0.8250 C.ar  155  PHE155     -0.0042
     59  CE1        8.6770    2.9240   -1.1860 C.ar  155  PHE155     -0.0003
     60  CE2        6.9070    4.3880   -0.4110 C.ar  155  PHE155     -0.0003
     61  CZ         7.4700    3.5950   -1.4150 C.ar  155  PHE155     -0.0000
     62  N         12.8960    7.1790   -2.1160 N.3   159  TYR159     -0.1241
     63  CA        12.4110    7.2040   -3.5260 C.3   159  TYR159      0.1605
     64  C         11.4860    8.4050   -3.7350 C.2   159  TYR159      0.2264
     65  O         11.5880    9.1140   -4.7160 O.2   159  TYR159     -0.2867
     66  CB        11.6470    5.9130   -3.8220 C.3   159  TYR159      0.0534
     67  CG        12.3690    4.7480   -3.1890 C.ar  159  TYR159     -0.0201
     68  CD1       13.6830    4.4510   -3.5710 C.ar  159  TYR159     -0.0009
     69  CD2       11.7290    3.9690   -2.2190 C.ar  159  TYR159     -0.0009
     70  CE1       14.3560    3.3730   -2.9840 C.ar  159  TYR159      0.0417
     71  CE2       12.4020    2.8910   -1.6300 C.ar  159  TYR159      0.0417
     72  CZ        13.7160    2.5940   -2.0130 C.ar  159  TYR159      0.1957
     73  OH        14.3800    1.5320   -1.4330 O.3   159  TYR159     -0.2866
     74  N         20.2550    5.5020   -8.0190 N.3   168  ARG168     -0.1231
     75  CA        21.4100    4.5620   -8.0330 C.3   168  ARG168      0.1694
     76  C         21.0820    3.3690   -8.9350 C.2   168  ARG168      0.2591
     77  O         21.5420    2.2660   -8.7170 O.2   168  ARG168     -0.2718
     78  CB        21.7010    4.0650   -6.6090 C.3   168  ARG168      0.0321
     79  CG        20.5380    4.4150   -5.6730 C.3   168  ARG168      0.0489
     80  CD        19.2830    3.6500   -6.0990 C.3   168  ARG168      0.2205
     81  NE        18.1270    4.5880   -6.1660 N.pl3 168  ARG168     -0.0865
     82  CZ        16.9990    4.1960   -6.6920 C.cat 168  ARG168      0.5346
     83  NH1       16.9280    3.9440   -7.9710 N.pl3 168  ARG168      0.1354
     84  NH2       15.9420    4.0560   -5.9400 N.pl3 168  ARG168      0.1354
     85  N         20.2880    3.5840   -9.9490 N.am  169  LYS169     -0.1980
     86  CA        19.9280    2.4660  -10.8660 C.3   169  LYS169      0.1596
     87  C         21.1740    2.0080  -11.6270 C.2   169  LYS169      0.2287
     88  O         21.4100    2.4110  -12.7490 O.2   169  LYS169     -0.2864
     89  CB        18.8700    2.9470  -11.8620 C.3   169  LYS169      0.0298
     90  CG        18.4260    1.7770  -12.7420 C.3   169  LYS169      0.0038
     91  CD        17.0550    1.2800  -12.2770 C.3   169  LYS169      0.0206
     92  CE        17.2380    0.1380  -11.2770 C.3   169  LYS169      0.1093
     93  NZ        16.9740    0.6380   -9.8980 N.3   169  LYS169     -0.1314
@<TRIPOS>BOND
     1    88    87    2
     2    90    91    1
     3    90    89    1
     4    91    92    1
     5    89    86    1
     6    87    86    1
     7    92    93    1
     8    86    85    1
     9    13    12   ar
    10     9     8    2
    11    14    12   ar
    12    85    76   am
    13     6     7    1
    14    12    11    1
    15    18    17    2
    16     7     8    1
    17     7    10    1
    18     8    15   am
    19    17    16    1
    20    76    77    2
    21    76    75    1
    22    11    10    1
    23    15    16    1
    24    16    19    1
    25    75    74    1
    26    75    78    1
    27    83    82    1
    28    19    20    1
    29     4     3    2
    30     3     2    1
    31    82    81    2
    32    82    84    1
    33     1     2    1
    34    78    79    1
    35     2     5    1
    36    81    80    1
    37    80    79    1
    38    20    21   ar
    39    20    22   ar
    40    21    23   ar
    41    65    64    2
    42    22    24   ar
    43    23    25   ar
    44    66    63    1
    45    66    67    1
    46    64    63    1
    47    68    67   ar
    48    68    70   ar
    49    63    62    1
    50    24    25   ar
    51    67    69   ar
    52    70    72   ar
    53    49    48    1
    54    69    71   ar
    55    47    46    2
    56    72    71   ar
    57    72    73    1
    58    46    45    1
    59    61    59   ar
    60    61    60   ar
    61    48    50    1
    62    48    45    1
    63    59    57   ar
    64    45    44    1
    65    60    58   ar
    66    43    42    2
    67    41    42    1
    68    41    40    1
    69    57    56   ar
    70    54    53    2
    71    58    56   ar
    72    56    55    1
    73    40    28   am
    74    53    52    1
    75    29    28    2
    76    28    27    1
    77    52    55    1
    78    52    51    1
    79    30    27    1
    80    30    31    1
    81    27    26    1
    82    31    32   ar
    83    31    33   ar
    84    32    34   ar
    85    33    36   ar
    86    33    35   ar
    87    36    38   ar
    88    34    35   ar
    89    35    37   ar
    90    38    39   ar
    91    37    39   ar
