@<TRIPOS>MOLECULE
tmp/1ysgA00.pdb
 92 87 0 0 0
SMALL
GASTEIGER

@<TRIPOS>ATOM
      1  N          6.3730   -1.5020   -8.4500 N.3    61  PHE61      -0.1241
      2  CA         6.1700   -2.9590   -8.1950 C.3    61  PHE61       0.1605
      3  C          5.5510   -3.6120   -9.4340 C.2    61  PHE61       0.2264
      4  O          5.8560   -4.7390   -9.7700 O.2    61  PHE61      -0.2867
      5  CB         5.2220   -3.1520   -7.0010 C.3    61  PHE61       0.0534
      6  CG         5.9930   -3.2650   -5.7000 C.ar   61  PHE61      -0.0203
      7  CD1        7.1690   -4.0280   -5.6200 C.ar   61  PHE61      -0.0042
      8  CD2        5.5150   -2.6070   -4.5610 C.ar   61  PHE61      -0.0042
      9  CE1        7.8590   -4.1240   -4.4090 C.ar   61  PHE61      -0.0003
     10  CE2        6.2080   -2.7070   -3.3520 C.ar   61  PHE61      -0.0003
     11  CZ         7.3790   -3.4630   -3.2780 C.ar   61  PHE61      -0.0000
     12  N          7.5560   -7.7020  -10.1880 N.3    65  TYR65      -0.1241
     13  CA         6.7690   -8.8430   -9.6390 C.3    65  TYR65       0.1605
     14  C          5.6580   -9.2160  -10.6210 C.2    65  TYR65       0.2264
     15  O          4.4870   -9.0600  -10.3360 O.2    65  TYR65      -0.2867
     16  CB         6.1470   -8.4390   -8.3010 C.3    65  TYR65       0.0534
     17  CG         7.2280   -8.3120   -7.2550 C.ar   65  TYR65      -0.0201
     18  CD1        7.6580   -9.4410   -6.5470 C.ar   65  TYR65      -0.0009
     19  CD2        7.7960   -7.0620   -6.9880 C.ar   65  TYR65      -0.0009
     20  CE1        8.6570   -9.3180   -5.5740 C.ar   65  TYR65       0.0417
     21  CE2        8.7940   -6.9380   -6.0140 C.ar   65  TYR65       0.0417
     22  CZ         9.2240   -8.0660   -5.3080 C.ar   65  TYR65       0.1957
     23  OH        10.2080   -7.9450   -4.3480 O.3    65  TYR65      -0.2866
     24  N          4.5960  -12.8030   -9.2640 N.3    68  ALA68      -0.1231
     25  CA         4.0130  -12.7080   -7.8950 C.3    68  ALA68       0.1694
     26  C          2.6310  -12.0480   -7.9630 C.2    68  ALA68       0.2592
     27  O          1.8010  -12.2420   -7.0970 O.2    68  ALA68      -0.2718
     28  CB         4.9350  -11.8700   -7.0060 C.3    68  ALA68       0.0304
     29  N          2.3740  -11.2710   -8.9830 N.am   69  PHE69      -0.1976
     30  CA         1.0440  -10.6060   -9.0950 C.3    69  PHE69       0.1639
     31  C          0.1340  -11.4290  -10.0130 C.2    69  PHE69       0.2290
     32  O         -0.6900  -10.8930  -10.7270 O.2    69  PHE69      -0.2864
     33  CB         1.2270   -9.2030   -9.6810 C.3    69  PHE69       0.0560
     34  CG         0.7080   -8.1760   -8.7020 C.ar   69  PHE69      -0.0200
     35  CD1       -0.6030   -8.2670   -8.2200 C.ar   69  PHE69      -0.0042
     36  CD2        1.5390   -7.1330   -8.2770 C.ar   69  PHE69      -0.0042
     37  CE1       -1.0830   -7.3150   -7.3130 C.ar   69  PHE69      -0.0003
     38  CE2        1.0590   -6.1800   -7.3700 C.ar   69  PHE69      -0.0003
     39  CZ        -0.2520   -6.2720   -6.8880 C.ar   69  PHE69      -0.0000
     40  N         -2.4650  -13.5800   -6.9270 N.3    72  LEU72      -0.1245
     41  CA        -2.8900  -12.7200   -5.7860 C.3    72  LEU72       0.1561
     42  C         -4.3620  -12.3400   -5.9560 C.2    72  LEU72       0.2260
     43  O         -5.0850  -12.1750   -4.9940 O.2    72  LEU72      -0.2867
     44  CB        -2.0360  -11.4500   -5.7580 C.3    72  LEU72       0.0270
     45  CG        -1.1100  -11.4840   -4.5410 C.3    72  LEU72       0.0019
     46  CD1        0.1480  -12.2860   -4.8780 C.3    72  LEU72       0.0001
     47  CD2       -0.7160  -10.0550   -4.1620 C.3    72  LEU72       0.0001
     48  N          0.4410  -12.7500    2.4280 N.3    93  GLU93      -0.1231
     49  CA         1.6000  -13.2130    1.6120 C.3    93  GLU93       0.1699
     50  C          2.7250  -12.1770    1.6770 C.2    93  GLU93       0.2592
     51  O          3.8720  -12.5080    1.9020 O.2    93  GLU93      -0.2718
     52  CB         1.1590  -13.3980    0.1580 C.3    93  GLU93       0.0402
     53  CG         1.6750  -14.7400   -0.3650 C.3    93  GLU93       0.1161
     54  CD         3.1860  -14.6550   -0.5820 C.2    93  GLU93       0.3649
     55  OE1        3.9060  -14.6340    0.4020 O.co2  93  GLU93      -0.2457
     56  OE2        3.5980  -14.6120   -1.7300 O.co2  93  GLU93      -0.2457
     57  N          2.4090  -10.9260    1.4810 N.am   94  LEU94      -0.1980
     58  CA         3.4660   -9.8760    1.5320 C.3    94  LEU94       0.1596
     59  C          3.8170   -9.5750    2.9930 C.2    94  LEU94       0.2287
     60  O          4.9240   -9.1850    3.3080 O.2    94  LEU94      -0.2864
     61  CB         2.9580   -8.6070    0.8360 C.3    94  LEU94       0.0297
     62  CG         3.6500   -8.4630   -0.5260 C.3    94  LEU94       0.0022
     63  CD1        3.5000   -9.7510   -1.3260 C.3    94  LEU94       0.0001
     64  CD2        3.0140   -7.3320   -1.3270 C.3    94  LEU94       0.0001
     65  N          8.0760   -5.1560    5.8120 N.3   100  ASN100     -0.1240
     66  CA         9.1750   -4.3640    5.1910 C.3   100  ASN100      0.1653
     67  C          8.5790   -3.2070    4.3870 C.2   100  ASN100      0.2266
     68  O          7.4120   -3.2100    4.0490 O.2   100  ASN100     -0.2867
     69  CB         9.9910   -5.2650    4.2600 C.3   100  ASN100      0.1155
     70  CG        11.4050   -5.4310    4.8180 C.2   100  ASN100      0.2627
     71  OD1       11.5810   -5.6820    5.9940 O.2   100  ASN100     -0.2716
     72  ND2       12.4290   -5.3020    4.0190 N.am  100  ASN100     -0.0877
     73  N          8.9000   -2.4080    1.2800 N.3   102  GLY102     -0.1210
     74  CA         8.3350   -2.9390    0.0070 C.3   102  GLY102      0.1956
     75  C          7.0450   -3.7050    0.2940 C.2   102  GLY102      0.2611
     76  O          6.0100   -3.4340   -0.2820 O.2   102  GLY102     -0.2717
     77  N          7.0970   -4.6580    1.1790 N.am  103  ARG103     -0.1979
     78  CA         5.8710   -5.4390    1.5010 C.3   103  ARG103      0.1597
     79  C          4.7510   -4.4820    1.9290 C.2   103  ARG103      0.2287
     80  O          3.5820   -4.7960    1.8230 O.2   103  ARG103     -0.2864
     81  CB         6.1730   -6.4150    2.6420 C.3   103  ARG103      0.0334
     82  CG         7.2980   -7.3660    2.2260 C.3   103  ARG103      0.0492
     83  CD         6.7260   -8.4870    1.3570 C.3   103  ARG103      0.2205
     84  NE         7.1340   -9.8060    1.9170 N.pl3 103  ARG103     -0.0865
     85  CZ         8.3020  -10.3060    1.6230 C.cat 103  ARG103      0.5346
     86  NH1        8.4420  -11.0610    0.5670 N.pl3 103  ARG103      0.1354
     87  NH2        9.3310  -10.0510    2.3840 N.pl3 103  ARG103      0.1354
     88  N          3.6540   -2.5610   -1.6720 N.3   106  ALA106     -0.1245
     89  CA         2.9280   -3.4580   -2.6020 C.3   106  ALA106      0.1562
     90  C          1.5360   -3.7620   -2.0510 C.2   106  ALA106      0.2260
     91  O          0.5470   -3.6210   -2.7430 O.2   106  ALA106     -0.2867
     92  CB         3.7090   -4.7540   -2.7480 C.3   106  ALA106      0.0290
@<TRIPOS>BOND
     1    32    31    2
     2    14    15    2
     3    14    13    1
     4    12    13    1
     5    31    30    1
     6     4     3    2
     7    33    30    1
     8    33    34    1
     9    13    16    1
    10     3     2    1
    11    24    25    1
    12    30    29    1
    13    29    26   am
    14    34    36   ar
    15    34    35   ar
    16     1     2    1
    17    16    17    1
    18    36    38   ar
    19    35    37   ar
    20     2     5    1
    21    26    25    1
    22    26    27    2
    23    25    28    1
    24    38    39   ar
    25    37    39   ar
    26    17    19   ar
    27    17    18   ar
    28     5     6    1
    29    19    21   ar
    30    40    41    1
    31    18    20   ar
    32    21    22   ar
    33    42    41    1
    34    42    43    2
    35    41    44    1
    36    44    45    1
    37     6     7   ar
    38     6     8   ar
    39     7     9   ar
    40    20    22   ar
    41    22    23    1
    42    46    45    1
    43     8    10   ar
    44    45    47    1
    45     9    11   ar
    46    10    11   ar
    47    92    89    1
    48    91    90    2
    49    89    90    1
    50    89    88    1
    51    56    54   ar
    52    64    62    1
    53    63    62    1
    54    54    53    1
    55    54    55   ar
    56    62    61    1
    57    53    52    1
    58    76    75    2
    59    74    75    1
    60    74    73    1
    61    52    49    1
    62    75    77   am
    63    86    85    1
    64    61    58    1
    65    77    78    1
    66    83    84    1
    67    83    82    1
    68    57    58    1
    69    57    50   am
    70    78    79    1
    71    78    81    1
    72    58    59    1
    73    49    50    1
    74    49    48    1
    75    85    84    2
    76    85    87    1
    77    50    51    2
    78    80    79    2
    79    82    81    1
    80    59    60    2
    81    72    70   am
    82    68    67    2
    83    69    70    1
    84    69    66    1
    85    67    66    1
    86    70    71    2
    87    66    65    1
