@<TRIPOS>MOLECULE
tmp/1ysiA00.pdb
 152 149 0 0 0
SMALL
GASTEIGER

@<TRIPOS>ATOM
      1  N          5.4140    3.9500   -6.5700 N.3    57  ALA57      -0.1245
      2  CA         5.5480    2.4990   -6.2610 C.3    57  ALA57       0.1562
      3  C          4.5440    1.7100   -7.1000 C.2    57  ALA57       0.2260
      4  O          4.8800    0.7190   -7.7180 O.2    57  ALA57      -0.2867
      5  CB         5.2690    2.2640   -4.7740 C.3    57  ALA57       0.0290
      6  N          6.3970    1.8280  -10.4940 N.3    60  GLU60      -0.1231
      7  CA         7.7170    1.1370  -10.4610 C.3    60  GLU60       0.1699
      8  C          7.5110   -0.3270  -10.0690 C.2    60  GLU60       0.2592
      9  O          7.9630   -1.2320  -10.7440 O.2    60  GLU60      -0.2718
     10  CB         8.6230    1.8130   -9.4300 C.3    60  GLU60       0.0402
     11  CG         9.2350    3.0780  -10.0340 C.3    60  GLU60       0.1161
     12  CD        10.1640    2.6970  -11.1880 C.2    60  GLU60       0.3649
     13  OE1       10.4270    1.5160  -11.3450 O.co2  60  GLU60      -0.2457
     14  OE2       10.5970    3.5920  -11.8940 O.co2  60  GLU60      -0.2457
     15  N          6.8310   -0.5660   -8.9820 N.am   61  PHE61      -0.1976
     16  CA         6.5940   -1.9690   -8.5410 C.3    61  PHE61       0.1639
     17  C          5.8910   -2.7430   -9.6590 C.2    61  PHE61       0.2290
     18  O          6.0180   -3.9470   -9.7680 O.2    61  PHE61      -0.2864
     19  CB         5.7120   -1.9610   -7.2880 C.3    61  PHE61       0.0560
     20  CG         5.5330   -3.3650   -6.7450 C.ar   61  PHE61      -0.0200
     21  CD1        6.5000   -4.3570   -6.9760 C.ar   61  PHE61      -0.0042
     22  CD2        4.3920   -3.6710   -5.9930 C.ar   61  PHE61      -0.0042
     23  CE1        6.3210   -5.6430   -6.4570 C.ar   61  PHE61      -0.0003
     24  CE2        4.2170   -4.9590   -5.4740 C.ar   61  PHE61      -0.0003
     25  CZ         5.1820   -5.9440   -5.7060 C.ar   61  PHE61      -0.0000
     26  N          9.2850   -4.1050  -12.6100 N.3    64  ARG64      -0.1231
     27  CA        10.3340   -5.1240  -12.3360 C.3    64  ARG64       0.1694
     28  C          9.6550   -6.4380  -11.9480 C.2    64  ARG64       0.2592
     29  O         10.1770   -7.5110  -12.1780 O.2    64  ARG64      -0.2718
     30  CB        11.2230   -4.6510  -11.1820 C.3    64  ARG64       0.0321
     31  CG        12.6740   -5.0490  -11.4600 C.3    64  ARG64       0.0489
     32  CD        13.5110   -4.8630  -10.1920 C.3    64  ARG64       0.2205
     33  NE        14.9230   -4.5750  -10.5700 N.pl3  64  ARG64      -0.0865
     34  CZ        15.8710   -4.6710   -9.6780 C.cat  64  ARG64       0.5346
     35  NH1       16.2840   -5.8460   -9.2870 N.pl3  64  ARG64       0.1354
     36  NH2       16.4090   -3.5910   -9.1790 N.pl3  64  ARG64       0.1354
     37  N          8.4920   -6.3600  -11.3580 N.am   65  TYR65      -0.1976
     38  CA         7.7750   -7.5990  -10.9530 C.3    65  TYR65       0.1639
     39  C          6.6560   -7.9000  -11.9510 C.2    65  TYR65       0.2290
     40  O          5.4950   -7.6690  -11.6770 O.2    65  TYR65      -0.2864
     41  CB         7.1730   -7.4020   -9.5590 C.3    65  TYR65       0.0560
     42  CG         8.2740   -7.4420   -8.5280 C.ar   65  TYR65      -0.0198
     43  CD1        9.2400   -6.4260   -8.4920 C.ar   65  TYR65      -0.0009
     44  CD2        8.3330   -8.4980   -7.6110 C.ar   65  TYR65      -0.0009
     45  CE1       10.2620   -6.4660   -7.5390 C.ar   65  TYR65       0.0417
     46  CE2        9.3580   -8.5380   -6.6580 C.ar   65  TYR65       0.0417
     47  CZ        10.3220   -7.5220   -6.6230 C.ar   65  TYR65       0.1957
     48  OH        11.3330   -7.5630   -5.6850 O.3    65  TYR65      -0.2866
     49  N          3.7250  -10.4470   -9.6770 N.3    68  ALA68      -0.1231
     50  CA         3.8900  -10.2870   -8.2050 C.3    68  ALA68       0.1694
     51  C          2.7880  -11.0550   -7.4760 C.2    68  ALA68       0.2592
     52  O          3.0330  -12.0690   -6.8550 O.2    68  ALA68      -0.2718
     53  CB         3.8010   -8.8030   -7.8430 C.3    68  ALA68       0.0304
     54  N          1.5740  -10.5810   -7.5480 N.am   69  PHE69      -0.1976
     55  CA         0.4600  -11.2900   -6.8580 C.3    69  PHE69       0.1639
     56  C         -0.5420  -11.7940   -7.8990 C.2    69  PHE69       0.2290
     57  O         -1.7360  -11.8100   -7.6730 O.2    69  PHE69      -0.2864
     58  CB        -0.2410  -10.3410   -5.8760 C.3    69  PHE69       0.0560
     59  CG         0.3440   -8.9510   -5.9810 C.ar   69  PHE69      -0.0200
     60  CD1        1.6010   -8.6690   -5.4270 C.ar   69  PHE69      -0.0042
     61  CD2       -0.3780   -7.9400   -6.6270 C.ar   69  PHE69      -0.0042
     62  CE1        2.1300   -7.3780   -5.5210 C.ar   69  PHE69      -0.0003
     63  CE2        0.1530   -6.6480   -6.7180 C.ar   69  PHE69      -0.0003
     64  CZ         1.4070   -6.3670   -6.1650 C.ar   69  PHE69      -0.0000
     65  N         -2.4020  -14.1750   -6.0590 N.3    72  LEU72      -0.1245
     66  CA        -3.1500  -13.5960   -4.9090 C.3    72  LEU72       0.1561
     67  C         -4.4680  -13.0050   -5.4140 C.2    72  LEU72       0.2260
     68  O         -5.5330  -13.3480   -4.9400 O.2    72  LEU72      -0.2867
     69  CB        -2.3120  -12.4960   -4.2520 C.3    72  LEU72       0.0270
     70  CG        -0.9060  -13.0230   -3.9500 C.3    72  LEU72       0.0019
     71  CD1       -0.2680  -12.1700   -2.8530 C.3    72  LEU72       0.0001
     72  CD2       -0.9910  -14.4760   -3.4750 C.3    72  LEU72       0.0001
     73  N          1.3880  -12.0840    2.4210 N.3    94  LEU94      -0.1245
     74  CA         2.3730  -11.0780    1.9360 C.3    94  LEU94       0.1561
     75  C          3.1850  -10.5590    3.1240 C.2    94  LEU94       0.2260
     76  O          4.3910  -10.4220    3.0540 O.2    94  LEU94      -0.2867
     77  CB         1.6310   -9.9110    1.2810 C.3    94  LEU94       0.0270
     78  CG         1.2380  -10.2900   -0.1470 C.3    94  LEU94       0.0019
     79  CD1        0.0610   -9.4240   -0.6000 C.3    94  LEU94       0.0001
     80  CD2        2.4260  -10.0550   -1.0800 C.3    94  LEU94       0.0001
     81  N          8.1540   -5.1180    5.4200 N.3   100  ASN100     -0.1225
     82  CA         9.2250   -4.2600    4.8400 C.3   100  ASN100      0.1785
     83  C          8.5850   -3.0930    4.0850 C.2   100  ASN100      0.2597
     84  O          7.3890   -3.0580    3.8750 O.2   100  ASN100     -0.2718
     85  CB        10.0810   -5.0870    3.8790 C.3   100  ASN100      0.1169
     86  CG        11.5450   -5.0260    4.3200 C.2   100  ASN100      0.2627
     87  OD1       12.1230   -3.9610    4.4010 O.2   100  ASN100     -0.2716
     88  ND2       12.1730   -6.1330    4.6110 N.am  100  ASN100     -0.0877
     89  N          9.3720   -2.1370    3.6770 N.am  101  TRP101     -0.1962
     90  CA         8.8100   -0.9710    2.9400 C.3   101  TRP101      0.1771
     91  C          8.1560   -1.4450    1.6400 C.2   101  TRP101      0.2620
     92  O          7.0420   -1.0740    1.3270 O.2   101  TRP101     -0.2715
     93  CB         9.9320    0.0230    2.6340 C.3   101  TRP101      0.0590
     94  CG        10.3370    0.7070    3.9030 C.ar  101  TRP101      0.0006
     95  CD1       11.6080    0.8140    4.3540 C.ar  101  TRP101      0.0946
     96  CD2        9.4940    1.3710    4.8940 C.ar  101  TRP101      0.0152
     97  NE1       11.6010    1.5000    5.5550 N.ar  101  TRP101     -0.2442
     98  CE2       10.3230    1.8640    5.9300 C.ar  101  TRP101      0.0810
     99  CE3        8.1060    1.5930    4.9950 C.ar  101  TRP101      0.0012
    100  CZ2        9.7970    2.5510    7.0250 C.ar  101  TRP101      0.0191
    101  CZ3        7.5740    2.2830    6.0970 C.ar  101  TRP101      0.0001
    102  CH2        8.4180    2.7600    7.1100 C.ar  101  TRP101      0.0015
    103  N          8.8310   -2.2620    0.8830 N.am  102  GLY102     -0.1940
    104  CA         8.2320   -2.7540   -0.3890 C.3   102  GLY102      0.2014
    105  C          6.9630   -3.5370   -0.0710 C.2   102  GLY102      0.2638
    106  O          5.9480   -3.3830   -0.7210 O.2   102  GLY102     -0.2714
    107  N          7.0100   -4.3740    0.9300 N.am  103  ARG103     -0.1977
    108  CA         5.8030   -5.1630    1.2940 C.3   103  ARG103      0.1597
    109  C          4.6420   -4.1990    1.5380 C.2   103  ARG103      0.2287
    110  O          3.5100   -4.4660    1.1880 O.2   103  ARG103     -0.2864
    111  CB         6.0780   -5.9600    2.5680 C.3   103  ARG103      0.0334
    112  CG         6.0470   -7.4580    2.2570 C.3   103  ARG103      0.0492
    113  CD         7.3170   -8.1120    2.7970 C.3   103  ARG103      0.2205
    114  NE         7.7440   -9.2050    1.8800 N.pl3 103  ARG103     -0.0865
    115  CZ         9.0080   -9.5140    1.7790 C.cat 103  ARG103      0.5346
    116  NH1        9.7670   -9.5160    2.8410 N.pl3 103  ARG103      0.1354
    117  NH2        9.5140   -9.8200    0.6150 N.pl3 103  ARG103      0.1354
    118  N          4.2400   -1.4300    0.0960 N.3   105  VAL105     -0.1231
    119  CA         3.8450   -0.8520   -1.2160 C.3   105  VAL105      0.1692
    120  C          3.0610   -1.9010   -2.0010 C.2   105  VAL105      0.2591
    121  O          2.1880   -1.5830   -2.7850 O.2   105  VAL105     -0.2718
    122  CB         5.0980   -0.4590   -2.0010 C.3   105  VAL105      0.0266
    123  CG1        4.8450   -0.6480   -3.4980 C.3   105  VAL105      0.0020
    124  CG2        5.4350    1.0080   -1.7240 C.3   105  VAL105      0.0020
    125  N          3.3650   -3.1540   -1.7950 N.am  106  ALA106     -0.1980
    126  CA         2.6370   -4.2230   -2.5270 C.3   106  ALA106      0.1597
    127  C          1.2420   -4.3870   -1.9230 C.2   106  ALA106      0.2287
    128  O          0.2650   -4.5510   -2.6260 O.2   106  ALA106     -0.2864
    129  CB         3.4060   -5.5410   -2.4090 C.3   106  ALA106      0.0319
    130  N         10.4140    6.0080    4.9510 N.3   155  PHE155     -0.1241
    131  CA         9.9020    5.2890    3.7520 C.3   155  PHE155      0.1605
    132  C         10.0570    6.1710    2.5110 C.2   155  PHE155      0.2264
    133  O         10.1450    5.6830    1.4010 O.2   155  PHE155     -0.2867
    134  CB         8.4240    4.9620    3.9540 C.3   155  PHE155      0.0534
    135  CG         7.8490    4.4280    2.6650 C.ar  155  PHE155     -0.0203
    136  CD1        8.2340    3.1670    2.1970 C.ar  155  PHE155     -0.0042
    137  CD2        6.9330    5.1960    1.9380 C.ar  155  PHE155     -0.0042
    138  CE1        7.7010    2.6720    1.0010 C.ar  155  PHE155     -0.0003
    139  CE2        6.4000    4.7010    0.7420 C.ar  155  PHE155     -0.0003
    140  CZ         6.7840    3.4400    0.2740 C.ar  155  PHE155     -0.0000
    141  N         13.8250    5.9720    0.1370 N.3   159  TYR159     -0.1241
    142  CA        13.6860    5.6280   -1.3110 C.3   159  TYR159      0.1605
    143  C         13.0060    6.7840   -2.0490 C.2   159  TYR159      0.2264
    144  O         13.5150    7.2870   -3.0300 O.2   159  TYR159     -0.2867
    145  CB        12.8290    4.3650   -1.4650 C.3   159  TYR159      0.0534
    146  CG        13.6300    3.0990   -1.1900 C.ar  159  TYR159     -0.0201
    147  CD1       15.0100    3.1390   -0.9060 C.ar  159  TYR159     -0.0009
    148  CD2       12.9710    1.8620   -1.2250 C.ar  159  TYR159     -0.0009
    149  CE1       15.7080    1.9490   -0.6620 C.ar  159  TYR159      0.0417
    150  CE2       13.6750    0.6790   -0.9790 C.ar  159  TYR159      0.0417
    151  CZ        15.0410    0.7220   -0.6980 C.ar  159  TYR159      0.1957
    152  OH        15.7330   -0.4470   -0.4570 O.3   159  TYR159     -0.2866
@<TRIPOS>BOND
     1    26    27    1
     2    27    28    1
     3    27    30    1
     4    29    28    2
     5    39    40    2
     6    39    38    1
     7    28    37   am
     8    14    12   ar
     9    31    30    1
    10    31    32    1
    11    37    38    1
    12    13    12   ar
    13    12    11    1
    14    38    41    1
    15     9     8    2
    16    33    32    1
    17    33    34    2
    18     6     7    1
    19     7     8    1
    20     7    10    1
    21     8    15   am
    22    11    10    1
    23    18    17    2
    24    34    35    1
    25    34    36    1
    26    49    50    1
    27    17    16    1
    28    41    42    1
    29    15    16    1
    30    16    19    1
    31    42    43   ar
    32    42    44   ar
    33    43    45   ar
    34    50    53    1
    35    50    51    1
    36    56    57    2
    37    56    55    1
    38     4     3    2
    39    44    46   ar
    40    54    51   am
    41    54    55    1
    42    45    47   ar
    43    51    52    2
    44    19    20    1
    45     3     2    1
    46    21    20   ar
    47    21    23   ar
    48    55    58    1
    49    20    22   ar
    50    63    61   ar
    51    63    64   ar
    52    46    47   ar
    53    61    59   ar
    54    47    48    1
    55     1     2    1
    56    23    25   ar
    57     2     5    1
    58    64    62   ar
    59    65    66    1
    60    22    24   ar
    61    59    58    1
    62    59    60   ar
    63    25    24   ar
    64    62    60   ar
    65    67    68    2
    66    67    66    1
    67    66    69    1
    68    69    70    1
    69    70    72    1
    70    70    71    1
    71   123   122    1
    72   144   143    2
    73   121   120    2
    74   128   127    2
    75   126   129    1
    76   126   127    1
    77   126   125    1
    78   143   142    1
    79   120   125   am
    80   120   119    1
    81   122   124    1
    82   122   119    1
    83   145   142    1
    84   145   146    1
    85   142   141    1
    86   148   146   ar
    87   148   150   ar
    88   119   118    1
    89   146   147   ar
    90    80    78    1
    91   150   151   ar
    92   147   149   ar
    93   106   105    2
    94   151   149   ar
    95   151   152    1
    96    79    78    1
    97   104   105    1
    98   104   103    1
    99    78    77    1
   100   105   107   am
   101   140   139   ar
   102   140   138   ar
   103   117   115    1
   104   139   137   ar
   105   103    91   am
   106   107   108    1
   107   138   136   ar
   108   110   109    2
   109    77    74    1
   110   108   109    1
   111   108   111    1
   112    92    91    2
   113   133   132    2
   114    91    90    1
   115   115   114    2
   116   115   116    1
   117   114   113    1
   118    74    73    1
   119    74    75    1
   120   137   135   ar
   121   136   135   ar
   122   112   111    1
   123   112   113    1
   124   132   131    1
   125    93    90    1
   126    93    94    1
   127   135   134    1
   128    90    89    1
   129    76    75    2
   130    89    83   am
   131   131   134    1
   132   131   130    1
   133    84    83    2
   134    85    86    1
   135    85    82    1
   136    94    95   ar
   137    94    96   ar
   138    83    82    1
   139    86    87    2
   140    86    88   am
   141    95    97   ar
   142    82    81    1
   143    96    99   ar
   144    96    98   ar
   145    99   101   ar
   146    97    98   ar
   147    98   100   ar
   148   101   102   ar
   149   100   102   ar
