@<TRIPOS>MOLECULE
tmp/1ysnA00.pdb
 166 159 0 0 0
SMALL
GASTEIGER

@<TRIPOS>ATOM
      1  N         18.3090    8.6720   16.1340 N.3    57  ALA57      -0.1245
      2  CA        19.6170    9.2060   15.7710 C.3    57  ALA57       0.1562
      3  C         19.4880   10.5280   15.0200 C.2    57  ALA57       0.2260
      4  O         20.2730   11.4520   15.2310 O.2    57  ALA57      -0.2867
      5  CB        20.3850    8.1950   14.9340 C.3    57  ALA57       0.0290
      6  N         18.5910   13.3440   17.4740 N.3    60  GLU60      -0.1231
      7  CA        19.7370   13.5950   18.3400 C.3    60  GLU60       0.1699
      8  C         20.8880   14.2360   17.5700 C.2    60  GLU60       0.2592
      9  O         21.7030   14.9580   18.1450 O.2    60  GLU60      -0.2718
     10  CB        20.2040   12.2880   18.9810 C.3    60  GLU60       0.0402
     11  CG        20.9720   12.4900   20.2740 C.3    60  GLU60       0.1161
     12  CD        20.1410   13.1790   21.3390 C.2    60  GLU60       0.3649
     13  OE1       18.9080   13.2670   21.1640 O.co2  60  GLU60      -0.2457
     14  OE2       20.7230   13.6280   22.3490 O.co2  60  GLU60      -0.2457
     15  N         20.9550   13.9640   16.2710 N.am   61  PHE61      -0.1976
     16  CA        22.0140   14.5130   15.4300 C.3    61  PHE61       0.1636
     17  C         21.9640   16.0390   15.4120 C.2    61  PHE61       0.2290
     18  O         22.9260   16.7040   15.7970 O.2    61  PHE61      -0.2864
     19  CB        21.9000   13.9620   14.0070 C.3    61  PHE61       0.0520
     20  CG        22.6880   14.7420   12.9950 C.2    61  PHE61      -0.0377
     21  CD1       23.1000   15.1070   13.2520 C.2    61  PHE61      -0.0087
     22  CD2       22.1180   15.1090   11.7860 C.3    61  PHE61       0.0477
     23  CE1       24.7290   15.8240   12.3230 C.3    61  PHE61       0.0304
     24  CE2       22.8430   15.8260   10.8530 C.2    61  PHE61      -0.0263
     25  CZ        24.1500   16.1840   11.1220 C.2    61  PHE61      -0.0300
     26  N         23.0190   17.4130   18.9810 N.3    64  ARG64      -0.1231
     27  CA        24.4310   17.4720   19.3380 C.3    64  ARG64       0.1694
     28  C         25.2120   18.2700   18.3000 C.2    64  ARG64       0.2592
     29  O         26.0960   19.0560   18.6410 O.2    64  ARG64      -0.2718
     30  CB        25.0140   16.0610   19.4540 C.3    64  ARG64       0.0321
     31  CG        23.9780   14.9900   19.7570 C.3    64  ARG64       0.0489
     32  CD        24.4680   14.0190   20.8190 C.3    64  ARG64       0.2205
     33  NE        25.0600   14.7110   21.9630 N.pl3  64  ARG64      -0.0865
     34  CZ        26.3220   14.5580   22.3710 C.cat  64  ARG64       0.5346
     35  NH1       27.1510   13.7320   21.7410 N.pl3  64  ARG64       0.1354
     36  NH2       26.7590   15.2400   23.4210 N.pl3  64  ARG64       0.1354
     37  N         24.8780   18.0620   17.0300 N.am   65  TYR65      -0.1976
     38  CA        25.5460   18.7600   15.9380 C.3    65  TYR65       0.1639
     39  C         24.6050   19.7570   15.2730 C.2    65  TYR65       0.2290
     40  O         24.4930   19.7990   14.0480 O.2    65  TYR65      -0.2864
     41  CB        26.0610   17.7570   14.9040 C.3    65  TYR65       0.0560
     42  CG        27.1890   16.8910   15.4150 C.ar   65  TYR65      -0.0198
     43  CD1       28.4250   17.4440   15.7260 C.ar   65  TYR65      -0.0009
     44  CD2       27.0190   15.5240   15.5890 C.ar   65  TYR65      -0.0009
     45  CE1       29.4600   16.6580   16.1960 C.ar   65  TYR65       0.0417
     46  CE2       28.0490   14.7310   16.0590 C.ar   65  TYR65       0.0417
     47  CZ        29.2670   15.3030   16.3610 C.ar   65  TYR65       0.1957
     48  OH        30.2950   14.5170   16.8290 O.3    65  TYR65      -0.2866
     49  N         26.8920   21.6650   13.0840 N.3    68  ALA68      -0.1245
     50  CA        27.4980   20.7970   12.0800 C.3    68  ALA68       0.1562
     51  C         26.4990   20.4400   10.9850 C.2    68  ALA68       0.2260
     52  O         26.8830   20.1420    9.8540 O.2    68  ALA68      -0.2867
     53  CB        28.0390   19.5340   12.7320 C.3    68  ALA68       0.0290
     54  N         25.6860   22.6340    7.0270 N.3    72  LEU72      -0.1245
     55  CA        25.6670   21.6940    5.9110 C.3    72  LEU72       0.1561
     56  C         24.4840   21.9730    4.9860 C.2    72  LEU72       0.2260
     57  O         24.6590   22.1760    3.7840 O.2    72  LEU72      -0.2867
     58  CB        25.5990   20.2560    6.4330 C.3    72  LEU72       0.0270
     59  CG        26.5790   19.2730    5.7830 C.3    72  LEU72       0.0019
     60  CD1       26.0010   18.7230    4.4900 C.3    72  LEU72       0.0001
     61  CD2       27.9240   19.9380    5.5250 C.3    72  LEU72       0.0001
     62  N         24.9170   24.3660    2.4570 N.3    75  GLN75      -0.1245
     63  CA        25.9960   24.1490    1.4990 C.3    75  GLN75       0.1566
     64  C         25.4470   23.7700    0.1270 C.2    75  GLN75       0.2260
     65  O         26.1650   23.8150   -0.8720 O.2    75  GLN75      -0.2867
     66  CB        26.9390   23.0530    2.0010 C.3    75  GLN75       0.0367
     67  CG        28.0420   23.5690    2.9100 C.3    75  GLN75       0.0905
     68  CD        29.3720   23.7010    2.1930 C.2    75  GLN75       0.2608
     69  OE1       29.5370   23.2180    1.0730 O.2    75  GLN75      -0.2717
     70  NE2       30.3290   24.3570    2.8390 N.am   75  GLN75      -0.0878
     71  N         28.3460   17.2880   -2.6250 N.3    90  VAL90      -0.1245
     72  CA        28.3070   17.7480   -1.2410 C.3    90  VAL90       0.1561
     73  C         28.2900   16.5830   -0.2570 C.2    90  VAL90       0.2260
     74  O         28.9840   16.6100    0.7590 O.2    90  VAL90      -0.2867
     75  CB        27.0760   18.6350   -0.9820 C.3    90  VAL90       0.0252
     76  CG1       26.8990   19.6440   -2.1050 C.3    90  VAL90       0.0019
     77  CG2       25.8290   17.7790   -0.8200 C.3    90  VAL90       0.0019
     78  N         31.9290   14.8630    0.1670 N.3    93  GLU93      -0.1231
     79  CA        32.8750   15.4710    1.0970 C.3    93  GLU93       0.1699
     80  C         32.5730   15.0460    2.5290 C.2    93  GLU93       0.2592
     81  O         33.4520   14.5640    3.2430 O.2    93  GLU93      -0.2718
     82  CB        32.8310   16.9920    0.9870 C.3    93  GLU93       0.0402
     83  CG        33.6860   17.5470   -0.1420 C.3    93  GLU93       0.1161
     84  CD        35.0630   16.9150   -0.1920 C.2    93  GLU93       0.3649
     85  OE1       35.5860   16.5470    0.8800 O.co2  93  GLU93      -0.2457
     86  OE2       35.6190   16.7900   -1.3040 O.co2  93  GLU93      -0.2457
     87  N         31.3200   15.2180    2.9390 N.am   94  LEU94      -0.1980
     88  CA        30.8980   14.8400    4.2820 C.3    94  LEU94       0.1596
     89  C         31.1450   13.3490    4.5110 C.2    94  LEU94       0.2287
     90  O         31.1280   12.8710    5.6450 O.2    94  LEU94      -0.2864
     91  CB        29.4150   15.1940    4.4820 C.3    94  LEU94       0.0297
     92  CG        28.5900   14.2220    5.3370 C.3    94  LEU94       0.0022
     93  CD1       28.6360   14.6200    6.8070 C.3    94  LEU94       0.0001
     94  CD2       27.1500   14.1860    4.8490 C.3    94  LEU94       0.0001
     95  N         31.1380    5.8650    8.5560 N.3   100  ASN100     -0.1225
     96  CA        30.7800    5.4060    9.8920 C.3   100  ASN100      0.1785
     97  C         29.3350    5.7670   10.2160 C.2   100  ASN100      0.2597
     98  O         28.8700    6.8560    9.8780 O.2   100  ASN100     -0.2718
     99  CB        31.7170    6.0190   10.9350 C.3   100  ASN100      0.1169
    100  CG        31.4720    7.5040   11.1270 C.2   100  ASN100      0.2627
    101  OD1       31.1630    8.2200   10.1760 O.2   100  ASN100     -0.2716
    102  ND2       31.6090    7.9750   12.3610 N.am  100  ASN100     -0.0877
    103  N         28.6330    4.8440   10.8710 N.am  101  TRP101     -0.1962
    104  CA        27.2360    5.0540   11.2470 C.3   101  TRP101      0.1771
    105  C         26.9560    6.5290   11.5170 C.2   101  TRP101      0.2620
    106  O         25.9810    7.0880   11.0150 O.2   101  TRP101     -0.2715
    107  CB        26.8900    4.2250   12.4860 C.3   101  TRP101      0.0590
    108  CG        28.0940    3.6750   13.1860 C.ar  101  TRP101      0.0006
    109  CD1       28.8570    4.3070   14.1240 C.ar  101  TRP101      0.0946
    110  CD2       28.6770    2.3810   12.9960 C.ar  101  TRP101      0.0152
    111  NE1       29.8790    3.4840   14.5320 N.ar  101  TRP101     -0.2442
    112  CE2       29.7900    2.2960   13.8540 C.ar  101  TRP101      0.0810
    113  CE3       28.3660    1.2860   12.1860 C.ar  101  TRP101      0.0012
    114  CZ2       30.5910    1.1590   13.9240 C.ar  101  TRP101      0.0191
    115  CZ3       29.1610    0.1580   12.2560 C.ar  101  TRP101      0.0001
    116  CH2       30.2620    0.1020   13.1200 C.ar  101  TRP101      0.0015
    117  N         27.8200    7.1540   12.3080 N.am  102  GLY102     -0.1940
    118  CA        27.6480    8.5580   12.6250 C.3   102  GLY102      0.2014
    119  C         27.3620    9.3960   11.3950 C.2   102  GLY102      0.2638
    120  O         26.2920    9.9940   11.2810 O.2   102  GLY102     -0.2714
    121  N         28.3160    9.4360   10.4710 N.am  103  ARG103     -0.1977
    122  CA        28.1540   10.2050    9.2440 C.3   103  ARG103      0.1597
    123  C         26.9170    9.7460    8.4790 C.2   103  ARG103      0.2287
    124  O         26.2410   10.5490    7.8350 O.2   103  ARG103     -0.2864
    125  CB        29.3950   10.0700    8.3610 C.3   103  ARG103      0.0334
    126  CG        30.1570   11.3730    8.1800 C.3   103  ARG103      0.0492
    127  CD        31.6090   11.2350    8.6100 C.3   103  ARG103      0.2205
    128  NE        32.2640   12.5340    8.7550 N.pl3 103  ARG103     -0.0865
    129  CZ        33.2930   12.7530    9.5690 C.cat 103  ARG103      0.5346
    130  NH1       33.7840   11.7640   10.3030 N.pl3 103  ARG103      0.1354
    131  NH2       33.8330   13.9620    9.6490 N.pl3 103  ARG103      0.1354
    132  N         23.8410    8.5190    9.5700 N.3   105  VAL105     -0.1231
    133  CA        22.6530    9.1870   10.0810 C.3   105  VAL105      0.1692
    134  C         22.7820   10.6960    9.9190 C.2   105  VAL105      0.2591
    135  O         21.8760   11.3530    9.4080 O.2   105  VAL105     -0.2718
    136  CB        22.4000    8.8520   11.5610 C.3   105  VAL105      0.0266
    137  CG1       21.0490    9.3940   12.0040 C.3   105  VAL105      0.0020
    138  CG2       22.4830    7.3510   11.7890 C.3   105  VAL105      0.0020
    139  N         23.9250   11.2400   10.3350 N.am  106  ALA106     -0.1980
    140  CA        24.1670   12.6710   10.2060 C.3   106  ALA106      0.1597
    141  C         23.8780   13.1090    8.7770 C.2   106  ALA106      0.2287
    142  O         23.4920   14.2510    8.5260 O.2   106  ALA106     -0.2864
    143  CB        25.6030   13.0140   10.5900 C.3   106  ALA106      0.0319
    144  N         23.6300   -1.4000   13.4570 N.3   155  PHE155     -0.1241
    145  CA        23.3270   -0.0210   13.8270 C.3   155  PHE155      0.1605
    146  C         22.2490    0.0360   14.9050 C.2   155  PHE155      0.2264
    147  O         22.3290    0.8420   15.8330 O.2   155  PHE155     -0.2867
    148  CB        22.8770    0.7710   12.5980 C.3   155  PHE155      0.0534
    149  CG        22.5150    2.1950   12.9030 C.ar  155  PHE155     -0.0203
    150  CD1       23.5030    3.1470   13.1000 C.ar  155  PHE155     -0.0042
    151  CD2       21.1880    2.5820   12.9950 C.ar  155  PHE155     -0.0042
    152  CE1       23.1730    4.4590   13.3830 C.ar  155  PHE155     -0.0003
    153  CE2       20.8520    3.8920   13.2770 C.ar  155  PHE155     -0.0003
    154  CZ        21.8460    4.8320   13.4720 C.ar  155  PHE155     -0.0000
    155  N         23.6120    1.9790   18.3900 N.3   159  TYR159     -0.1241
    156  CA        23.0250    3.2820   18.6930 C.3   159  TYR159      0.1605
    157  C         21.5170    3.2670   18.4550 C.2   159  TYR159      0.2264
    158  O         20.9840    4.1100   17.7330 O.2   159  TYR159     -0.2867
    159  CB        23.6730    4.3740   17.8370 C.3   159  TYR159      0.0534
    160  CG        25.0330    4.8220   18.3320 C.ar  159  TYR159     -0.0201
    161  CD1       26.0360    3.9000   18.6010 C.ar  159  TYR159     -0.0009
    162  CD2       25.3130    6.1690   18.5240 C.ar  159  TYR159     -0.0009
    163  CE1       27.2800    4.3090   19.0450 C.ar  159  TYR159      0.0417
    164  CE2       26.5540    6.5840   18.9690 C.ar  159  TYR159      0.0417
    165  CZ        27.5330    5.6510   19.2280 C.ar  159  TYR159      0.1957
    166  OH        28.7700    6.0620   19.6680 O.3   159  TYR159     -0.2866
@<TRIPOS>BOND
     1    71    72    1
     2    76    75    1
     3    86    84   ar
     4    72    75    1
     5    72    73    1
     6    75    77    1
     7    65    64    2
     8    73    74    2
     9    84    83    1
    10    84    85   ar
    11    83    82    1
    12    64    63    1
    13    78    79    1
    14    82    79    1
    15    69    68    2
    16    79    80    1
    17    63    66    1
    18    63    62    1
    19    66    67    1
    20    68    70   am
    21    68    67    1
    22    80    87   am
    23    80    81    2
    24    87    88    1
    25    57    56    2
    26    88    91    1
    27    88    89    1
    28    91    92    1
    29    60    59    1
    30    89    90    2
    31    94    92    1
    32    56    55    1
    33    92    93    1
    34    61    59    1
    35    59    58    1
    36    55    58    1
    37    55    54    1
    38   124   123    2
    39   126   125    1
    40   126   127    1
    41   125   122    1
    42   123   122    1
    43   142   141    2
    44    95    96    1
    45   127   128    1
    46   128   129    2
    47   141   140    1
    48   122   121    1
    49   135   134    2
    50   129   131    1
    51   129   130    1
    52   132   133    1
    53    52    51    2
    54    98    97    2
    55    96    97    1
    56    96    99    1
    57   134   133    1
    58   134   139   am
    59   133   136    1
    60   101   100    2
    61   140   139    1
    62   140   143    1
    63    97   103   am
    64   121   119   am
    65    24    25    2
    66    24    22    1
    67   103   104    1
    68    99   100    1
    69    51    50    1
    70   106   105    2
    71    25    23    1
    72   100   102   am
    73   104   105    1
    74   104   107    1
    75   120   119    2
    76   119   118    1
    77   105   117   am
    78   136   138    1
    79   136   137    1
    80    22    20    1
    81    50    53    1
    82    50    49    1
    83   113   115   ar
    84   113   110   ar
    85   115   116   ar
    86   117   118    1
    87   107   108    1
    88   148   149    1
    89   148   145    1
    90   149   151   ar
    91   149   150   ar
    92   151   153   ar
    93    20    21    2
    94    20    19    1
    95   110   108   ar
    96   110   112   ar
    97   150   152   ar
    98   116   114   ar
    99   108   109   ar
   100   153   154   ar
   101   152   154   ar
   102   144   145    1
   103   145   146    1
   104   112   114   ar
   105   112   111   ar
   106    19    16    1
   107    40    39    2
   108   109   111   ar
   109    41    42    1
   110    41    38    1
   111   146   147    2
   112     5     2    1
   113     3     4    2
   114     3     2    1
   115    39    38    1
   116    17    16    1
   117    17    18    2
   118    42    44   ar
   119    42    43   ar
   120    16    15    1
   121    44    46   ar
   122    43    45   ar
   123     2     1    1
   124    38    37    1
   125    46    47   ar
   126    45    47   ar
   127    15     8   am
   128    47    48    1
   129    37    28   am
   130     6     7    1
   131     8     9    2
   132     8     7    1
   133   158   157    2
   134   159   160    1
   135   159   156    1
   136    28    29    2
   137    28    27    1
   138   160   162   ar
   139   160   161   ar
   140     7    10    1
   141   155   156    1
   142   157   156    1
   143   162   164   ar
   144   161   163   ar
   145   164   165   ar
   146    10    11    1
   147    26    27    1
   148   163   165   ar
   149   165   166    1
   150    27    30    1
   151    30    31    1
   152    31    32    1
   153    11    12    1
   154    32    33    1
   155    13    12   ar
   156    12    14   ar
   157    35    34    1
   158    33    34    2
   159    34    36    1
