@<TRIPOS>MOLECULE
tmp/1ystA07.pdb
 142 134 0 0 0
SMALL
GASTEIGER

@<TRIPOS>ATOM
      1  N        -11.3950  -28.6650    5.3420 N.3   182  THR182     -0.1218
      2  CA        -9.9870  -28.7140    4.9480 C.3   182  THR182      0.1862
      3  C         -9.7390  -29.4170    3.5780 C.2   182  THR182      0.2287
      4  O         -8.6720  -29.2900    2.9810 O.2   182  THR182     -0.2866
      5  CB        -9.1640  -29.4230    6.0510 C.3   182  THR182      0.1770
      6  OG1       -9.4710  -28.8600    7.3340 O.3   182  THR182     -0.2211
      7  CG2       -7.6790  -29.2690    5.7930 C.3   182  THR182      0.0375
      8  N         -9.8650  -26.5080    1.1000 N.3   185  LEU185     -0.1231
      9  CA        -8.6270  -25.7280    1.2300 C.3   185  LEU185      0.1693
     10  C         -7.5850  -26.3550    0.3020 C.2   185  LEU185      0.2591
     11  O         -7.1370  -25.7330   -0.6680 O.2   185  LEU185     -0.2718
     12  CB        -8.1090  -25.7130    2.6970 C.3   185  LEU185      0.0284
     13  CG        -6.9530  -24.7940    3.1840 C.3   185  LEU185      0.0019
     14  CD1       -7.3630  -23.3400    3.1220 C.3   185  LEU185      0.0001
     15  CD2       -6.5260  -25.1000    4.6210 C.3   185  LEU185      0.0001
     16  N         -7.2630  -27.6140    0.5530 N.am  186  ALA186     -0.1980
     17  CA        -6.2880  -28.3000   -0.2790 C.3   186  ALA186      0.1597
     18  C         -6.5710  -28.0830   -1.7810 C.2   186  ALA186      0.2287
     19  O         -5.8970  -27.2670   -2.4210 O.2   186  ALA186     -0.2864
     20  CB        -6.2170  -29.8020    0.0710 C.3   186  ALA186      0.0319
     21  N         -6.3410  -24.5760   -3.3100 N.3   189  LEU189     -0.1231
     22  CA        -4.9680  -24.1780   -3.4210 C.3   189  LEU189      0.1693
     23  C         -4.2900  -24.9320   -4.5780 C.2   189  LEU189      0.2592
     24  O         -3.7190  -24.2970   -5.4560 O.2   189  LEU189     -0.2718
     25  CB        -4.2590  -24.3690   -2.0780 C.3   189  LEU189      0.0284
     26  CG        -4.4150  -23.2690   -0.9900 C.3   189  LEU189      0.0019
     27  CD1       -3.8840  -21.9070   -1.4760 C.3   189  LEU189      0.0001
     28  CD2       -5.8690  -23.0910   -0.6090 C.3   189  LEU189      0.0001
     29  N         -4.3230  -26.2980   -4.5960 N.am  190  HIS190     -0.1976
     30  CA        -3.7230  -27.1190   -5.6760 C.3   190  HIS190      0.1656
     31  C         -4.4020  -26.8100   -7.0050 C.2   190  HIS190      0.2291
     32  O         -3.8370  -27.0560   -8.0770 O.2   190  HIS190     -0.2864
     33  CB        -3.9010  -28.6190   -5.3760 C.3   190  HIS190      0.0771
     34  CG        -3.0900  -29.5670   -6.2950 C.ar  190  HIS190      0.0820
     35  ND1       -1.8660  -29.1970   -6.8480 N.ar  190  HIS190     -0.2267
     36  CD2       -3.3400  -30.8480   -6.7320 C.ar  190  HIS190      0.1154
     37  CE1       -1.4080  -30.2230   -7.5690 C.ar  190  HIS190      0.1986
     38  NE2       -2.2760  -31.2180   -7.5080 N.ar  190  HIS190     -0.2212
     39  N         -2.5720  -23.4670   -7.9790 N.3   193  LEU193     -0.1245
     40  CA        -1.1580  -23.7750   -7.9330 C.3   193  LEU193      0.1561
     41  C         -0.4640  -24.2740   -9.2260 C.2   193  LEU193      0.2260
     42  O          0.7160  -23.9740   -9.4490 O.2   193  LEU193     -0.2867
     43  CB        -0.9520  -24.7080   -6.7390 C.3   193  LEU193      0.0270
     44  CG         0.3220  -25.3610   -6.2160 C.3   193  LEU193      0.0019
     45  CD1        0.6200  -26.6120   -7.0310 C.3   193  LEU193      0.0001
     46  CD2        1.5020  -24.3930   -6.1820 C.3   193  LEU193      0.0001
     47  N          6.3340  -23.9040   -7.9940 N.3   212  GLU212     -0.1231
     48  CA         5.2140  -24.3590   -7.1740 C.3   212  GLU212      0.1699
     49  C          5.8140  -24.4260   -5.7600 C.2   212  GLU212      0.2592
     50  O          5.3590  -23.7640   -4.8180 O.2   212  GLU212     -0.2718
     51  CB         4.8150  -25.8100   -7.5190 C.3   212  GLU212      0.0402
     52  CG         4.0440  -26.1430   -8.8160 C.3   212  GLU212      0.1161
     53  CD         3.5930  -27.6270   -8.8490 C.2   212  GLU212      0.3649
     54  OE1        3.1830  -28.1410   -7.7820 O.co2 212  GLU212     -0.2457
     55  OE2        3.6570  -28.2760   -9.9260 O.co2 212  GLU212     -0.2457
     56  N          6.8270  -25.2940   -5.6470 N.am  213  ASP213     -0.1974
     57  CA         7.5630  -25.5720   -4.4110 C.3   213  ASP213      0.1709
     58  C          8.1610  -24.3570   -3.7170 C.2   213  ASP213      0.2293
     59  O          8.4990  -24.4130   -2.5330 O.2   213  ASP213     -0.2864
     60  CB         8.6530  -26.6210   -4.6660 C.3   213  ASP213      0.1436
     61  CG         8.3040  -27.9850   -4.0760 C.2   213  ASP213      0.3671
     62  OD1        7.6200  -27.9980   -3.0390 O.co2 213  ASP213     -0.2456
     63  OD2        8.7050  -29.0350   -4.6260 O.co2 213  ASP213     -0.2456
     64  N          4.6750  -21.5630   -2.3670 N.3   216  PHE216     -0.1241
     65  CA         4.1530  -21.9960   -1.0690 C.3   216  PHE216      0.1605
     66  C          5.1560  -21.8070    0.0720 C.2   216  PHE216      0.2264
     67  O          4.7900  -21.3520    1.1610 O.2   216  PHE216     -0.2867
     68  CB         3.6510  -23.4400   -1.1440 C.3   216  PHE216      0.0534
     69  CG         2.1660  -23.5320   -1.2410 C.ar  216  PHE216     -0.0203
     70  CD1        1.3940  -23.2230   -0.1430 C.ar  216  PHE216     -0.0042
     71  CD2        1.5280  -23.8110   -2.4410 C.ar  216  PHE216     -0.0042
     72  CE1        0.0300  -23.1770   -0.2320 C.ar  216  PHE216     -0.0003
     73  CE2        0.1310  -23.7630   -2.5240 C.ar  216  PHE216     -0.0003
     74  CZ        -0.5980  -23.4440   -1.4180 C.ar  216  PHE216     -0.0000
     75  N          3.4130  -19.7390    2.9260 N.3   220  VAL220     -0.1245
     76  CA         3.0770  -20.4960    4.1520 C.3   220  VAL220      0.1561
     77  C          4.3610  -20.7480    4.9620 C.2   220  VAL220      0.2260
     78  O          4.3620  -20.8060    6.2030 O.2   220  VAL220     -0.2867
     79  CB         2.4470  -21.9050    3.7780 C.3   220  VAL220      0.0252
     80  CG1        2.3640  -22.8350    4.9900 C.3   220  VAL220      0.0019
     81  CG2        1.0760  -21.7280    3.1360 C.3   220  VAL220      0.0019
     82  N          6.2940  -23.1810    3.7610 N.3   222  TYR222     -0.1227
     83  CA         6.2910  -24.6220    3.5400 C.3   222  TYR222      0.1736
     84  C          5.6020  -24.9860    2.2060 C.2   222  TYR222      0.2596
     85  O          4.7940  -24.2230    1.6800 O.2   222  TYR222     -0.2718
     86  CB         5.5480  -25.3030    4.6970 C.3   222  TYR222      0.0548
     87  CG         5.8120  -26.7820    4.8740 C.ar  222  TYR222     -0.0200
     88  CD1        5.2830  -27.7270    4.0050 C.ar  222  TYR222     -0.0009
     89  CD2        6.5420  -27.2370    5.9510 C.ar  222  TYR222     -0.0009
     90  CE1        5.4720  -29.0890    4.2110 C.ar  222  TYR222      0.0417
     91  CE2        6.7330  -28.6050    6.1710 C.ar  222  TYR222      0.0417
     92  CZ         6.1890  -29.5160    5.2860 C.ar  222  TYR222      0.1957
     93  OH         6.3230  -30.8810    5.4390 O.3   222  TYR222     -0.2866
     94  N          5.9720  -26.1350    1.6480 N.am  223  SER223     -0.1938
     95  CA         5.3950  -26.6750    0.4120 C.3   223  SER223      0.2055
     96  C          5.7140  -28.1750    0.4900 C.2   223  SER223      0.2643
     97  O          6.8480  -28.5060    0.8220 O.2   223  SER223     -0.2714
     98  CB         6.0300  -26.0410   -0.8450 C.3   223  SER223      0.2130
     99  OG         7.3670  -26.4420   -1.0490 O.3   223  SER223     -0.2179
    100  N          4.7570  -29.0810    0.2720 N.am  224  ILE224     -0.1963
    101  CA         5.1240  -30.4960    0.3650 C.3   224  ILE224      0.1727
    102  C          5.5580  -31.2260   -0.9320 C.2   224  ILE224      0.2617
    103  O          5.5190  -32.4620   -1.0050 O.2   224  ILE224     -0.2715
    104  CB         4.1160  -31.3870    1.1520 C.3   224  ILE224      0.0290
    105  CG1        2.8660  -30.6500    1.6040 C.3   224  ILE224      0.0022
    106  CG2        4.7950  -31.9680    2.3730 C.3   224  ILE224      0.0023
    107  CD1        1.8310  -31.6160    2.3390 C.3   224  ILE224      0.0001
    108  N          6.0600  -30.4710   -1.9090 N.am  225  GLY225     -0.1940
    109  CA         6.5080  -31.0450   -3.1720 C.3   225  GLY225      0.2014
    110  C          5.3700  -31.4300   -4.1050 C.2   225  GLY225      0.2639
    111  O          4.2660  -30.9230   -3.9450 O.2   225  GLY225     -0.2714
    112  N          5.6310  -32.3000   -5.0780 N.am  226  THR226     -0.1950
    113  CA         4.5780  -32.7330   -5.9860 C.3   226  THR226      0.1897
    114  C          3.8580  -34.0740   -5.6460 C.2   226  THR226      0.2313
    115  O          2.6960  -34.2490   -6.0170 O.2   226  THR226     -0.2863
    116  CB         5.0320  -32.7240   -7.4550 C.3   226  THR226      0.1794
    117  OG1        6.0540  -33.7020   -7.6570 O.3   226  THR226     -0.2208
    118  CG2        5.5650  -31.3670   -7.8280 C.3   226  THR226      0.0378
    119  N          1.1810  -33.4630   -1.9910 N.3   229  ILE229     -0.1245
    120  CA        -0.1940  -33.0270   -1.9420 C.3   229  ILE229      0.1561
    121  C         -1.1290  -34.0190   -2.6070 C.2   229  ILE229      0.2260
    122  O         -2.3020  -34.1090   -2.2550 O.2   229  ILE229     -0.2867
    123  CB        -0.3540  -31.5860   -2.4760 C.3   229  ILE229      0.0252
    124  CG1       -1.3100  -30.8050   -1.5850 C.3   229  ILE229      0.0019
    125  CG2       -0.7400  -31.5530   -3.9230 C.3   229  ILE229      0.0019
    126  CD1       -2.7530  -30.8210   -1.9680 C.3   229  ILE229      0.0001
    127  N         -2.1950  -36.2910    0.3980 N.3   232  LEU232     -0.1245
    128  CA        -3.2520  -35.7320    1.2390 C.3   232  LEU232      0.1561
    129  C         -4.6070  -35.9940    0.5600 C.2   232  LEU232      0.2260
    130  O         -5.6310  -36.2080    1.2020 O.2   232  LEU232     -0.2867
    131  CB        -3.0400  -34.2120    1.3700 C.3   232  LEU232      0.0270
    132  CG        -3.1000  -33.4480    2.7150 C.3   232  LEU232      0.0019
    133  CD1       -1.6900  -33.2370    3.3110 C.3   232  LEU232      0.0001
    134  CD2       -3.7590  -32.0850    2.5320 C.3   232  LEU232      0.0001
    135  N         -7.0160  -36.6570    3.5160 N.3   236  LEU236     -0.1245
    136  CA        -7.8100  -35.5530    4.0050 C.3   236  LEU236      0.1561
    137  C         -9.3060  -35.8530    3.8130 C.2   236  LEU236      0.2260
    138  O        -10.0130  -36.0630    4.7960 O.2   236  LEU236     -0.2867
    139  CB        -7.4010  -34.2600    3.2930 C.3   236  LEU236      0.0270
    140  CG        -7.4700  -32.9190    4.0440 C.3   236  LEU236      0.0019
    141  CD1       -6.5370  -32.8840    5.2940 C.3   236  LEU236      0.0001
    142  CD2       -7.1000  -31.8000    3.0680 C.3   236  LEU236      0.0001
@<TRIPOS>BOND
     1    55    53   ar
     2    42    41    2
     3    41    40    1
     4    53    52    1
     5    53    54   ar
     6    52    51    1
     7    32    31    2
     8    47    48    1
     9    39    40    1
    10    40    43    1
    11   118   116    1
    12   117   116    1
    13    37    38   ar
    14    37    35   ar
    15    51    48    1
    16    38    36   ar
    17   116   113    1
    18    48    49    1
    19    45    44    1
    20    31    30    1
    21    35    34   ar
    22    43    44    1
    23    36    34   ar
    24    34    33    1
    25    44    46    1
    26   115   114    2
    27   113   114    1
    28   113   112    1
    29    49    56   am
    30    49    50    2
    31    30    33    1
    32    30    29    1
    33    56    57    1
    34    24    23    2
    35   112   110   am
    36    60    57    1
    37    60    61    1
    38    63    61   ar
    39    29    23   am
    40    23    22    1
    41    57    58    1
    42   110   111    2
    43   110   109    1
    44    61    62   ar
    45   125   123    1
    46    58    59    2
    47    22    21    1
    48    22    25    1
    49   109   108    1
    50   121   122    2
    51   121   120    1
    52    73    71   ar
    53    73    74   ar
    54   123   120    1
    55   123   124    1
    56    71    69   ar
    57    19    18    2
    58    64    65    1
    59    25    26    1
    60   119   120    1
    61   126   124    1
    62   108   102   am
    63    18    17    1
    64    27    26    1
    65    74    72   ar
    66    69    68    1
    67    69    70   ar
    68    68    65    1
    69    65    66    1
    70    99    98    1
    71   103   102    2
    72    26    28    1
    73   102   101    1
    74    98    95    1
    75    11    10    2
    76    17    20    1
    77    17    16    1
    78    72    70   ar
    79    66    67    2
    80   100   101    1
    81   100    96   am
    82    10    16   am
    83    10     9    1
    84   101   104    1
    85   127   128    1
    86    95    96    1
    87    95    94    1
    88    96    97    2
    89   129   130    2
    90   129   128    1
    91     8     9    1
    92   104   105    1
    93   104   106    1
    94     9    12    1
    95   128   131    1
    96   131   132    1
    97   105   107    1
    98    94    84   am
    99    85    84    2
   100    84    83    1
   101   134   132    1
   102    12    13    1
   103   132   133    1
   104    75    76    1
   105     4     3    2
   106   142   140    1
   107    14    13    1
   108    81    79    1
   109    13    15    1
   110   139   136    1
   111   139   140    1
   112   135   136    1
   113    83    82    1
   114    83    86    1
   115     3     2    1
   116    79    76    1
   117    79    80    1
   118   137   136    1
   119   137   138    2
   120    88    90   ar
   121    88    87   ar
   122   140   141    1
   123    76    77    1
   124    90    92   ar
   125    86    87    1
   126    87    89   ar
   127     2     1    1
   128     2     5    1
   129    77    78    2
   130    92    93    1
   131    92    91   ar
   132     7     5    1
   133    89    91   ar
   134     5     6    1
