@<TRIPOS>MOLECULE
tmp/1yswA00.pdb
 216 212 0 0 0
SMALL
GASTEIGER

@<TRIPOS>ATOM
      1  N          5.9180    2.4500   -5.6200 N.3    56  GLN56      -0.1231
      2  CA         7.1380    2.5570   -6.4130 C.3    56  GLN56       0.1698
      3  C          8.3690    2.3160   -5.5470 C.2    56  GLN56       0.2592
      4  O          9.3810    1.7970   -6.0170 O.2    56  GLN56      -0.2718
      5  CB         7.2230    3.9380   -7.0670 C.3    56  GLN56       0.0381
      6  CG         6.9240    3.9260   -8.5560 C.3    56  GLN56       0.0905
      7  CD         7.5220    5.1150   -9.2820 C.2    56  GLN56       0.2608
      8  OE1        8.7420    5.2620   -9.3580 O.2    56  GLN56      -0.2717
      9  NE2        6.6630    5.9730   -9.8200 N.am   56  GLN56      -0.0878
     10  N          8.2740    2.7010   -4.2790 N.am   57  ALA57      -0.1980
     11  CA         9.3760    2.5330   -3.3410 C.3    57  ALA57       0.1597
     12  C          9.9160    1.1060   -3.3700 C.2    57  ALA57       0.2287
     13  O         11.1180    0.8890   -3.5120 O.2    57  ALA57      -0.2864
     14  CB         8.9280    2.9050   -1.9340 C.3    57  ALA57       0.0319
     15  N         11.6660    0.0630   -6.8640 N.3    60  ASP60      -0.1225
     16  CA        13.0150    0.6010   -6.9940 C.3    60  ASP60       0.1805
     17  C         14.0090   -0.1830   -6.1410 C.2    60  ASP60       0.2597
     18  O         15.1770   -0.3230   -6.5050 O.2    60  ASP60      -0.2718
     19  CB        13.0270    2.0750   -6.5940 C.3    60  ASP60       0.1424
     20  CG        13.2500    2.9970   -7.7760 C.2    60  ASP60       0.3668
     21  OD1       13.8970    2.5660   -8.7530 O.co2  60  ASP60      -0.2456
     22  OD2       12.7760    4.1520   -7.7240 O.co2  60  ASP60      -0.2456
     23  N         13.5420   -0.6920   -5.0060 N.am   61  PHE61      -0.1976
     24  CA        14.3970   -1.4600   -4.1070 C.3    61  PHE61       0.1639
     25  C         14.7080   -2.8360   -4.6860 C.2    61  PHE61       0.2290
     26  O         15.8650   -3.2530   -4.7360 O.2    61  PHE61      -0.2864
     27  CB        13.7290   -1.6220   -2.7420 C.3    61  PHE61       0.0560
     28  CG        14.5340   -2.4460   -1.7790 C.ar   61  PHE61      -0.0200
     29  CD1       15.7390   -1.9770   -1.2840 C.ar   61  PHE61      -0.0042
     30  CD2       14.0860   -3.6910   -1.3710 C.ar   61  PHE61      -0.0042
     31  CE1       16.4820   -2.7340   -0.3970 C.ar   61  PHE61      -0.0003
     32  CE2       14.8240   -4.4540   -0.4860 C.ar   61  PHE61      -0.0003
     33  CZ        16.0230   -3.9740    0.0020 C.ar   61  PHE61      -0.0000
     34  N         17.3260   -2.8420   -7.1550 N.3    64  ARG64      -0.1231
     35  CA        18.6660   -2.6030   -6.6280 C.3    64  ARG64       0.1694
     36  C         19.2390   -3.8680   -5.9960 C.2    64  ARG64       0.2592
     37  O         20.3930   -4.2230   -6.2340 O.2    64  ARG64      -0.2718
     38  CB        18.6390   -1.4710   -5.5990 C.3    64  ARG64       0.0321
     39  CG        19.0350   -0.1180   -6.1690 C.3    64  ARG64       0.0489
     40  CD        20.4070   -0.1660   -6.8240 C.3    64  ARG64       0.2205
     41  NE        21.3510    0.7450   -6.1810 N.pl3  64  ARG64      -0.0865
     42  CZ        21.2120    2.0690   -6.1640 C.cat  64  ARG64       0.5346
     43  NH1       20.1790    2.6480   -6.7670 N.pl3  64  ARG64       0.1354
     44  NH2       22.1120    2.8200   -5.5440 N.pl3  64  ARG64       0.1354
     45  N         18.4260   -4.5440   -5.1910 N.am   65  TYR65      -0.1976
     46  CA        18.8520   -5.7700   -4.5270 C.3    65  TYR65       0.1639
     47  C         18.2070   -6.9880   -5.1820 C.2    65  TYR65       0.2290
     48  O         17.1790   -7.4830   -4.7190 O.2    65  TYR65      -0.2864
     49  CB        18.4910   -5.7230   -3.0380 C.3    65  TYR65       0.0560
     50  CG        19.0440   -4.5130   -2.3150 C.ar   65  TYR65      -0.0198
     51  CD1       18.6270   -3.2290   -2.6470 C.ar   65  TYR65      -0.0009
     52  CD2       19.9860   -4.6540   -1.3020 C.ar   65  TYR65      -0.0009
     53  CE1       19.1320   -2.1230   -1.9910 C.ar   65  TYR65       0.0417
     54  CE2       20.4960   -3.5520   -0.6430 C.ar   65  TYR65       0.0417
     55  CZ        20.0660   -2.2900   -0.9920 C.ar   65  TYR65       0.1957
     56  OH        20.5740   -1.1890   -0.3420 O.3    65  TYR65      -0.2866
     57  N         19.5570  -10.7800   -2.8560 N.3    68  ASP68      -0.1225
     58  CA        19.5760  -10.7970   -1.3980 C.3    68  ASP68       0.1805
     59  C         18.3700  -11.5540   -0.8520 C.2    68  ASP68       0.2597
     60  O         18.5050  -12.6520   -0.3120 O.2    68  ASP68      -0.2718
     61  CB        19.5900   -9.3690   -0.8480 C.3    68  ASP68       0.1424
     62  CG        20.8040   -8.5840   -1.3030 C.2    68  ASP68       0.3668
     63  OD1       20.9070   -8.2990   -2.5150 O.co2  68  ASP68      -0.2456
     64  OD2       21.6520   -8.2530   -0.4480 O.co2  68  ASP68      -0.2456
     65  N         17.1910  -10.9600   -0.9980 N.am   69  PHE69      -0.1976
     66  CA        15.9590  -11.5790   -0.5210 C.3    69  PHE69       0.1639
     67  C         15.5410  -12.7360   -1.4240 C.2    69  PHE69       0.2290
     68  O         14.9010  -13.6840   -0.9760 O.2    69  PHE69      -0.2864
     69  CB        14.8330  -10.5490   -0.4430 C.3    69  PHE69       0.0560
     70  CG        14.7070   -9.6960   -1.6720 C.ar   69  PHE69      -0.0200
     71  CD1       14.0490  -10.1690   -2.7950 C.ar   69  PHE69      -0.0042
     72  CD2       15.2470   -8.4210   -1.7020 C.ar   69  PHE69      -0.0042
     73  CE1       13.9320   -9.3850   -3.9270 C.ar   69  PHE69      -0.0003
     74  CE2       15.1340   -7.6320   -2.8310 C.ar   69  PHE69      -0.0003
     75  CZ        14.4760   -8.1150   -3.9450 C.ar   69  PHE69      -0.0000
     76  N         17.2730  -15.8920    0.0540 N.3    72  MET72      -0.1245
     77  CA        16.6860  -16.2960    1.3280 C.3    72  MET72       0.1570
     78  C         15.3210  -16.9490    1.1210 C.2    72  MET72       0.2261
     79  O         14.8950  -17.7820    1.9220 O.2    72  MET72      -0.2867
     80  CB        16.5660  -15.0920    2.2700 C.3    72  MET72       0.0387
     81  CG        15.3250  -14.2400    2.0400 C.3    72  MET72       0.0595
     82  SD        14.0770  -14.4680    3.3210 S.3    72  MET72      -0.1393
     83  CE        13.1970  -12.9110    3.2150 C.3    72  MET72       0.0692
     84  N         11.6340  -13.7710    9.7690 N.3    90  VAL90      -0.1231
     85  CA        12.2960  -12.9540    8.7580 C.3    90  VAL90       0.1692
     86  C         12.2330  -11.4710    9.1080 C.2    90  VAL90       0.2591
     87  O         13.2600  -10.7980    9.1820 O.2    90  VAL90      -0.2718
     88  CB        11.6620  -13.1630    7.3720 C.3    90  VAL90       0.0266
     89  CG1       12.1110  -12.0760    6.4080 C.3    90  VAL90       0.0020
     90  CG2       12.0030  -14.5440    6.8320 C.3    90  VAL90       0.0020
     91  N         11.0220  -10.9650    9.3230 N.am   91  VAL91      -0.1980
     92  CA        10.8340   -9.5590    9.6640 C.3    91  VAL91       0.1595
     93  C         11.6640   -9.1730   10.8820 C.2    91  VAL91       0.2287
     94  O         12.2470   -8.0900   10.9290 O.2    91  VAL91      -0.2864
     95  CB         9.3540   -9.2280    9.9400 C.3    91  VAL91       0.0276
     96  CG1        8.5920   -9.0670    8.6350 C.3    91  VAL91       0.0022
     97  CG2        8.7090  -10.2940   10.8160 C.3    91  VAL91       0.0022
     98  N         14.4690   -9.9470   11.7080 N.3    93  GLU93      -0.1231
     99  CA        15.8210   -9.6020   11.2850 C.3    93  GLU93       0.1699
    100  C         15.8440   -8.2820   10.5170 C.2    93  GLU93       0.2592
    101  O         16.8560   -7.5810   10.5060 O.2    93  GLU93      -0.2718
    102  CB        16.4110  -10.7220   10.4240 C.3    93  GLU93       0.0402
    103  CG        16.1860  -10.5380    8.9310 C.3    93  GLU93       0.1161
    104  CD        17.3390   -9.8300    8.2480 C.2    93  GLU93       0.3649
    105  OE1       18.2450   -9.3470    8.9600 O.co2  93  GLU93      -0.2457
    106  OE2       17.3370   -9.7600    7.0020 O.co2  93  GLU93      -0.2457
    107  N         14.7290   -7.9490    9.8690 N.am   94  LEU94      -0.1980
    108  CA        14.6400   -6.7140    9.0970 C.3    94  LEU94       0.1596
    109  C         14.9860   -5.5110    9.9680 C.2    94  LEU94       0.2287
    110  O         15.6160   -4.5580    9.5090 O.2    94  LEU94      -0.2864
    111  CB        13.2330   -6.5530    8.5030 C.3    94  LEU94       0.0297
    112  CG        13.0800   -5.5090    7.3830 C.3    94  LEU94       0.0022
    113  CD1       12.4770   -4.2250    7.9260 C.3    94  LEU94       0.0001
    114  CD2       14.4090   -5.2200    6.7040 C.3    94  LEU94       0.0001
    115  N         12.5820    4.6310    7.9730 N.3   101  TRP101     -0.1227
    116  CA        11.9730    4.6820    6.6470 C.3   101  TRP101      0.1737
    117  C         12.8030    3.9000    5.6340 C.2   101  TRP101      0.2596
    118  O         12.2710    3.3680    4.6610 O.2   101  TRP101     -0.2718
    119  CB        11.8140    6.1320    6.1850 C.3   101  TRP101      0.0564
    120  CG        13.0300    6.9740    6.4270 C.ar  101  TRP101      0.0003
    121  CD1       14.2390    6.8690    5.8010 C.ar  101  TRP101      0.0946
    122  CD2       13.1530    8.0510    7.3610 C.ar  101  TRP101      0.0152
    123  NE1       15.1060    7.8160    6.2900 N.ar  101  TRP101     -0.2442
    124  CE2       14.4630    8.5540    7.2490 C.ar  101  TRP101      0.0810
    125  CE3       12.2820    8.6400    8.2820 C.ar  101  TRP101      0.0012
    126  CZ2       14.9210    9.6170    8.0230 C.ar  101  TRP101      0.0191
    127  CZ3       12.7380    9.6950    9.0490 C.ar  101  TRP101      0.0001
    128  CH2       14.0470   10.1750    8.9150 C.ar  101  TRP101      0.0015
    129  N         14.1090    3.8320    5.8680 N.am  102  GLY102     -0.1942
    130  CA        14.9830    3.1100    4.9670 C.3   102  GLY102      0.2014
    131  C         14.7580    1.6100    4.9960 C.2   102  GLY102      0.2638
    132  O         14.7320    0.9660    3.9550 O.2   102  GLY102     -0.2714
    133  N         14.6190    1.0510    6.1920 N.am  103  ARG103     -0.1977
    134  CA        14.4170   -0.3930    6.3430 C.3   103  ARG103      0.1597
    135  C         12.9950   -0.8370    5.9860 C.2   103  ARG103      0.2287
    136  O         12.8020   -1.9030    5.4000 O.2   103  ARG103     -0.2864
    137  CB        14.7580   -0.8700    7.7620 C.3   103  ARG103      0.0334
    138  CG        15.6520    0.0700    8.5590 C.3   103  ARG103      0.0492
    139  CD        16.8940    0.4620    7.7760 C.3   103  ARG103      0.2205
    140  NE        18.1100    0.3120    8.5690 N.pl3 103  ARG103     -0.0865
    141  CZ        19.3380    0.3260    8.0550 C.cat 103  ARG103      0.5346
    142  NH1       19.5200    0.4840    6.7490 N.pl3 103  ARG103      0.1354
    143  NH2       20.3890    0.1810    8.8510 N.pl3 103  ARG103      0.1354
    144  N         10.9960   -0.0510    3.7470 N.3   105  VAL105     -0.1231
    145  CA        10.7820   -0.3040    2.3280 C.3   105  VAL105      0.1692
    146  C         10.9550   -1.7810    2.0080 C.2   105  VAL105      0.2592
    147  O         10.2370   -2.3360    1.1770 O.2   105  VAL105     -0.2718
    148  CB        11.7250    0.5380    1.4530 C.3   105  VAL105      0.0266
    149  CG1       11.3670    1.9970    1.5820 C.3   105  VAL105      0.0020
    150  CG2       13.1730    0.3400    1.8460 C.3   105  VAL105      0.0020
    151  N         11.8960   -2.4160    2.6910 N.am  106  ALA106     -0.1966
    152  CA        12.1470   -3.8360    2.5020 C.3   106  ALA106      0.1728
    153  C         10.9860   -4.6690    3.0450 C.2   106  ALA106      0.2616
    154  O         10.7280   -5.7750    2.5720 O.2   106  ALA106     -0.2715
    155  CB        13.4490   -4.2270    3.1820 C.3   106  ALA106      0.0334
    156  N         10.2930   -4.1270    4.0470 N.am  107  PHE107     -0.1974
    157  CA         9.1620   -4.8110    4.6670 C.3   107  PHE107      0.1639
    158  C          8.1140   -5.2040    3.6300 C.2   107  PHE107      0.2290
    159  O          7.6970   -6.3600    3.5630 O.2   107  PHE107     -0.2864
    160  CB         8.5300   -3.9100    5.7320 C.3   107  PHE107      0.0560
    161  CG         7.5300   -4.6120    6.6060 C.ar  107  PHE107     -0.0200
    162  CD1        6.3130   -5.0310    6.0920 C.ar  107  PHE107     -0.0042
    163  CD2        7.8060   -4.8500    7.9430 C.ar  107  PHE107     -0.0042
    164  CE1        5.3900   -5.6750    6.8950 C.ar  107  PHE107     -0.0003
    165  CE2        6.8870   -5.4930    8.7510 C.ar  107  PHE107     -0.0003
    166  CZ         5.6770   -5.9060    8.2250 C.ar  107  PHE107     -0.0000
    167  N          8.3670   -5.4780    0.3620 N.3   109  GLU109     -0.1231
    168  CA         8.9210   -6.4640   -0.5570 C.3   109  GLU109      0.1699
    169  C          8.8020   -7.8750    0.0090 C.2   109  GLU109      0.2592
    170  O          8.3970   -8.8000   -0.6940 O.2   109  GLU109     -0.2718
    171  CB        10.3860   -6.1410   -0.8560 C.3   109  GLU109      0.0402
    172  CG        10.5810   -4.8120   -1.5650 C.3   109  GLU109      0.1161
    173  CD        11.0310   -4.9810   -3.0030 C.2   109  GLU109      0.3649
    174  OE1       12.1640   -5.4630   -3.2180 O.co2 109  GLU109     -0.2457
    175  OE2       10.2510   -4.6330   -3.9140 O.co2 109  GLU109     -0.2457
    176  N          9.1580   -8.0390    1.2810 N.am  110  PHE110     -0.1976
    177  CA         9.0860   -9.3470    1.9230 C.3   110  PHE110      0.1639
    178  C          7.7260   -9.9930    1.6920 C.2   110  PHE110      0.2290
    179  O          7.6380  -11.1150    1.1940 O.2   110  PHE110     -0.2864
    180  CB         9.3540   -9.2350    3.4250 C.3   110  PHE110      0.0560
    181  CG         9.2950  -10.5590    4.1350 C.ar  110  PHE110     -0.0200
    182  CD1        9.6920  -11.7210    3.4920 C.ar  110  PHE110     -0.0042
    183  CD2        8.8400  -10.6440    5.4420 C.ar  110  PHE110     -0.0042
    184  CE1        9.6380  -12.9410    4.1370 C.ar  110  PHE110     -0.0003
    185  CE2        8.7830  -11.8630    6.0920 C.ar  110  PHE110     -0.0003
    186  CZ         9.1830  -13.0120    5.4380 C.ar  110  PHE110     -0.0000
    187  N          7.2650  -11.0610   -1.7160 N.3   113  VAL113     -0.1245
    188  CA         8.1600  -12.1730   -2.0100 C.3   113  VAL113      0.1561
    189  C          7.5880  -13.4840   -1.4820 C.2   113  VAL113      0.2260
    190  O          7.6020  -14.5030   -2.1720 O.2   113  VAL113     -0.2867
    191  CB         9.5590  -11.9500   -1.4010 C.3   113  VAL113      0.0252
    192  CG1       10.4540  -13.1520   -1.6620 C.3   113  VAL113      0.0019
    193  CG2       10.1860  -10.6810   -1.9570 C.3   113  VAL113      0.0019
    194  N          7.2420   10.3460    5.0370 N.3   155  PHE155     -0.1241
    195  CA         7.8360    9.5460    3.9680 C.3   155  PHE155      0.1605
    196  C          7.6280   10.2020    2.6060 C.2   155  PHE155      0.2264
    197  O          8.5860   10.4450    1.8720 O.2   155  PHE155     -0.2867
    198  CB         7.2340    8.1390    3.9690 C.3   155  PHE155      0.0534
    199  CG         7.2950    7.4530    2.6330 C.ar  155  PHE155     -0.0203
    200  CD1        8.5150    7.1500    2.0500 C.ar  155  PHE155     -0.0042
    201  CD2        6.1320    7.1090    1.9640 C.ar  155  PHE155     -0.0042
    202  CE1        8.5740    6.5150    0.8240 C.ar  155  PHE155     -0.0003
    203  CE2        6.1850    6.4750    0.7370 C.ar  155  PHE155     -0.0003
    204  CZ         7.4070    6.1780    0.1660 C.ar  155  PHE155     -0.0000
    205  N         10.5630   11.7080    0.6660 N.3   159  TYR159     -0.1241
    206  CA        10.8410   11.0480   -0.6000 C.3   159  TYR159      0.1605
    207  C          9.7270   11.3080   -1.6060 C.2   159  TYR159      0.2264
    208  O          9.0790   10.3780   -2.0860 O.2   159  TYR159     -0.2867
    209  CB        11.0180    9.5460   -0.3820 C.3   159  TYR159      0.0534
    210  CG        12.1660    9.1930    0.5400 C.ar  159  TYR159     -0.0201
    211  CD1       13.1570   10.1210    0.8460 C.ar  159  TYR159     -0.0009
    212  CD2       12.2610    7.9260    1.1030 C.ar  159  TYR159     -0.0009
    213  CE1       14.2060    9.7950    1.6840 C.ar  159  TYR159      0.0417
    214  CE2       13.3080    7.5940    1.9410 C.ar  159  TYR159      0.0417
    215  CZ        14.2760    8.5310    2.2290 C.ar  159  TYR159      0.1957
    216  OH        15.3200    8.2040    3.0640 O.3   159  TYR159     -0.2866
@<TRIPOS>BOND
     1     9     7   am
     2     8     7    2
     3     7     6    1
     4    21    20   ar
     5     6     5    1
     6    20    22   ar
     7    20    19    1
     8    34    35    1
     9     5     2    1
    10    16    15    1
    11    16    19    1
    12    16    17    1
    13    40    41    1
    14    40    39    1
    15    43    42    1
    16    35    36    1
    17    35    38    1
    18    18    17    2
    19     2     1    1
    20     2     3    1
    21    37    36    2
    22    41    42    2
    23    39    38    1
    24    42    44    1
    25    17    23   am
    26     4     3    2
    27    36    45   am
    28     3    10   am
    29    45    46    1
    30    47    48    2
    31    47    46    1
    32    23    24    1
    33    26    25    2
    34    25    24    1
    35    46    49    1
    36    10    11    1
    37    24    27    1
    38    75    73   ar
    39    75    74   ar
    40    73    71   ar
    41   175   173   ar
    42    13    12    2
    43    12    11    1
    44    11    14    1
    45   174   173   ar
    46    49    50    1
    47   173   172    1
    48    57    58    1
    49    74    72   ar
    50    71    70   ar
    51    27    28    1
    52    51    50   ar
    53    51    53   ar
    54    63    62   ar
    55    50    52   ar
    56   190   189    2
    57   208   207    2
    58   188   187    1
    59   188   189    1
    60   188   191    1
    61    53    55   ar
    62   193   191    1
    63    28    30   ar
    64    28    29   ar
    65    72    70   ar
    66    70    69    1
    67   192   191    1
    68   207   206    1
    69   172   171    1
    70    67    68    2
    71    67    66    1
    72    58    59    1
    73    58    61    1
    74    30    32   ar
    75    62    61    1
    76    62    64   ar
    77    52    54   ar
    78    29    31   ar
    79    65    59   am
    80    65    66    1
    81    55    54   ar
    82    55    56    1
    83   171   168    1
    84    59    60    2
    85   170   169    2
    86   206   209    1
    87   206   205    1
    88   168   169    1
    89   168   167    1
    90    66    69    1
    91    32    33   ar
    92    31    33   ar
    93   209   210    1
    94   169   176   am
    95    76    77    1
    96   204   203   ar
    97   204   202   ar
    98   210   211   ar
    99   210   212   ar
   100   203   201   ar
   101   202   200   ar
   102   211   213   ar
   103   212   214   ar
   104    78    77    1
   105    78    79    2
   106   147   146    2
   107   179   178    2
   108   176   177    1
   109    77    80    1
   110   148   149    1
   111   148   150    1
   112   148   145    1
   113   213   215   ar
   114   178   177    1
   115   197   196    2
   116   177   180    1
   117   214   215   ar
   118   201   199   ar
   119   146   145    1
   120   146   151   am
   121    81    80    1
   122    81    82    1
   123   200   199   ar
   124   215   216    1
   125   145   144    1
   126   152   151    1
   127   152   153    1
   128   152   155    1
   129   154   153    2
   130   196   195    1
   131   199   198    1
   132   153   156   am
   133    83    82    1
   134   180   181    1
   135   182   181   ar
   136   182   184   ar
   137   159   158    2
   138   158   157    1
   139   132   131    2
   140   195   198    1
   141   195   194    1
   142   156   157    1
   143   181   183   ar
   144   184   186   ar
   145   118   117    2
   146   157   160    1
   147   130   131    1
   148   130   129    1
   149   131   133   am
   150   136   135    2
   151   186   185   ar
   152   183   185   ar
   153   117   129   am
   154   117   116    1
   155   160   161    1
   156   121   123   ar
   157   121   120   ar
   158   135   134    1
   159   162   161   ar
   160   162   164   ar
   161   119   120    1
   162   119   116    1
   163   133   134    1
   164   123   124   ar
   165   134   137    1
   166    89    88    1
   167   120   122   ar
   168   161   163   ar
   169   116   115    1
   170   114   112    1
   171   142   141    1
   172    90    88    1
   173   164   166   ar
   174   106   104   ar
   175   124   122   ar
   176   124   126   ar
   177   122   125   ar
   178    88    85    1
   179   112   113    1
   180   112   111    1
   181   137   138    1
   182   139   138    1
   183   139   140    1
   184   163   165   ar
   185   126   128   ar
   186   141   140    2
   187   141   143    1
   188   166   165   ar
   189   104   103    1
   190   104   105   ar
   191   125   127   ar
   192   111   108    1
   193    96    95    1
   194    85    86    1
   195    85    84    1
   196   128   127   ar
   197   103   102    1
   198   108   107    1
   199   108   109    1
   200    86    87    2
   201    86    91   am
   202    91    92    1
   203   110   109    2
   204    92    95    1
   205    92    93    1
   206   107   100   am
   207    95    97    1
   208   102    99    1
   209   101   100    2
   210   100    99    1
   211    93    94    2
   212    99    98    1
