@<TRIPOS>MOLECULE
tmp/1yt0A04.pdb
 104 97 0 0 0
SMALL
GASTEIGER

@<TRIPOS>ATOM
      1  N         11.1350   13.9060   24.3630 N.3    56  ASN56      -0.1240
      2  CA        11.1760   13.4340   22.9820 C.3    56  ASN56       0.1653
      3  C         12.6000   12.9260   22.7460 C.2    56  ASN56       0.2266
      4  O         13.5570   13.5160   23.2350 O.2    56  ASN56      -0.2867
      5  CB        10.8530   14.5810   22.0240 C.3    56  ASN56       0.1155
      6  CG        10.4370   14.0960   20.6520 C.2    56  ASN56       0.2627
      7  OD1       11.1540   13.3230   20.0010 O.2    56  ASN56      -0.2716
      8  ND2        9.2720   14.5530   20.1970 N.am   56  ASN56      -0.0877
      9  N         13.8730   12.0840   19.4800 N.3    58  GLU58      -0.1245
     10  CA        14.3750   12.4450   18.1560 C.3    58  GLU58       0.1567
     11  C         14.6640   13.9430   17.9770 C.2    58  GLU58       0.2260
     12  O         14.1540   14.7860   18.7130 O.2    58  GLU58      -0.2867
     13  CB        13.3800   11.9810   17.0910 C.3    58  GLU58       0.0388
     14  CG        12.0220   12.6720   17.1530 C.3    58  GLU58       0.1160
     15  CD        11.0030   12.0330   16.2190 C.2    58  GLU58       0.3649
     16  OE1       10.1400   12.7620   15.6790 O.co2  58  GLU58      -0.2457
     17  OE2       11.0570   10.7960   16.0290 O.co2  58  GLU58      -0.2457
     18  N          9.6350   18.1900   10.8780 N.3    62  LYS62      -0.1245
     19  CA         8.6000   17.5880   10.0450 C.3    62  LYS62       0.1561
     20  C          7.5820   18.6240    9.5800 C.2    62  LYS62       0.2260
     21  O          7.0420   19.3970   10.3830 O.2    62  LYS62      -0.2867
     22  CB         7.8920   16.4750   10.8190 C.3    62  LYS62       0.0271
     23  CG         8.7880   15.3000   11.1690 C.3    62  LYS62       0.0035
     24  CD         8.0440   14.2620   11.9890 C.3    62  LYS62       0.0206
     25  CE         8.8860   13.0180   12.2010 C.3    62  LYS62       0.1093
     26  NZ         8.1530   11.9970   13.0060 N.3    62  LYS62      -0.1314
     27  N          3.9990   19.3000    7.2790 N.3    64  LYS64      -0.1245
     28  CA         2.8190   18.7030    6.6690 C.3    64  LYS64       0.1561
     29  C          1.8130   19.7370    6.1780 C.2    64  LYS64       0.2260
     30  O          1.6030   20.7740    6.8120 O.2    64  LYS64      -0.2867
     31  CB         2.1290   17.7570    7.6530 C.3    64  LYS64       0.0271
     32  CG         1.5190   18.4520    8.8460 C.3    64  LYS64       0.0035
     33  CD         0.8900   17.4550    9.8000 C.3    64  LYS64       0.0206
     34  CE         1.9390   16.5540   10.4280 C.3    64  LYS64       0.1093
     35  NZ         1.3380   15.6450   11.4450 N.3    64  LYS64      -0.1314
     36  N          7.0090   21.5020   12.3100 N.3    75  THR75      -0.1203
     37  CA         7.3190   21.0320   13.6610 C.3    75  THR75       0.1994
     38  C          8.7540   20.5710   13.8480 C.2    75  THR75       0.2618
     39  O          9.2950   19.8320   13.0210 O.2    75  THR75      -0.2717
     40  CB         6.3700   19.8670   14.0900 C.3    75  THR75       0.1784
     41  OG1        5.0000   20.2720   13.9320 O.3    75  THR75      -0.2211
     42  CG2        6.6060   19.4910   15.5540 C.3    75  THR75       0.0376
     43  N          9.3690   21.0310   14.9310 N.am   76  ASP76      -0.1959
     44  CA        10.7240   20.6340   15.2580 C.3    76  ASP76       0.1840
     45  C         10.7390   20.1380   16.6950 C.2    76  ASP76       0.2622
     46  O          9.8700   20.4910   17.5010 O.2    76  ASP76      -0.2715
     47  CB        11.7170   21.7920   15.1020 C.3    76  ASP76       0.1450
     48  CG        11.5630   22.8310   16.1930 C.2    76  ASP76       0.3671
     49  OD1       10.9520   23.8980   15.9420 O.co2  76  ASP76      -0.2456
     50  OD2       12.0490   22.5630   17.3130 O.co2  76  ASP76      -0.2456
     51  N         11.7300   19.3130   17.0190 N.am   77  THR77      -0.1951
     52  CA        11.8400   18.7660   18.3580 C.3    77  THR77       0.1897
     53  C         13.0060   19.4230   19.0900 C.2    77  THR77       0.2313
     54  O         13.7230   18.7900   19.8610 O.2    77  THR77      -0.2863
     55  CB        12.0230   17.2410   18.3020 C.3    77  THR77       0.1794
     56  OG1       13.2360   16.9390   17.6120 O.3    77  THR77      -0.2208
     57  CG2       10.8490   16.5890   17.5550 C.3    77  THR77       0.0378
     58  N          1.3310   17.4020   24.0560 N.3   138  THR138     -0.1203
     59  CA         1.2600   16.4600   22.9390 C.3   138  THR138      0.1994
     60  C          2.5100   16.4670   22.0650 C.2   138  THR138      0.2617
     61  O          2.7110   15.5660   21.2500 O.2   138  THR138     -0.2717
     62  CB         0.0300   16.7650   22.0180 C.3   138  THR138      0.1784
     63  OG1        0.2800   17.9460   21.2470 O.3   138  THR138     -0.2211
     64  CG2       -1.2300   16.9900   22.8510 C.3   138  THR138      0.0376
     65  N          3.3510   17.4840   22.2300 N.am  139  LEU139     -0.1979
     66  CA         4.5780   17.6000   21.4380 C.3   139  LEU139      0.1596
     67  C          5.7370   16.8170   22.0410 C.2   139  LEU139      0.2287
     68  O          6.6070   16.3190   21.3210 O.2   139  LEU139     -0.2864
     69  CB         4.9840   19.0780   21.3000 C.3   139  LEU139      0.0297
     70  CG         4.1940   19.9710   20.3250 C.3   139  LEU139      0.0022
     71  CD1        4.7370   21.4050   20.3860 C.3   139  LEU139      0.0001
     72  CD2        4.2860   19.4040   18.9040 C.3   139  LEU139      0.0001
     73  N          8.3540   17.6630   23.2910 N.3   141  ARG141     -0.1245
     74  CA         9.3390   18.7380   23.3530 C.3   141  ARG141      0.1563
     75  C          9.4550   19.2910   21.9500 C.2   141  ARG141      0.2260
     76  O          9.5560   18.5260   20.9890 O.2   141  ARG141     -0.2867
     77  CB        10.7300   18.2470   23.7720 C.3   141  ARG141      0.0307
     78  CG        11.7010   19.4100   23.9640 C.3   141  ARG141      0.0489
     79  CD        13.1710   19.0060   24.0380 C.3   141  ARG141      0.2205
     80  NE        13.5650   18.2440   22.8650 N.pl3 141  ARG141     -0.0865
     81  CZ        13.5790   16.9180   22.8270 C.cat 141  ARG141      0.5346
     82  NH1       13.2380   16.2250   23.9110 N.pl3 141  ARG141      0.1354
     83  NH2       13.8980   16.2900   21.7000 N.pl3 141  ARG141      0.1354
     84  N          5.6920   23.8310   17.0330 N.3   144  THR144     -0.1218
     85  CA         4.9660   23.6460   15.7960 C.3   144  THR144      0.1862
     86  C          4.5470   25.0440   15.3430 C.2   144  THR144      0.2287
     87  O          3.9730   25.8090   16.1130 O.2   144  THR144     -0.2866
     88  CB         3.7130   22.7320   15.9720 C.3   144  THR144      0.1770
     89  OG1        4.1290   21.3590   16.0770 O.3   144  THR144     -0.2211
     90  CG2        2.7580   22.8950   14.7910 C.3   144  THR144      0.0375
     91  N          5.8450    9.9030    5.7790 N.3   190  TRP190     -0.1241
     92  CA         6.9530   10.8470    5.7520 C.3   190  TRP190      0.1605
     93  C          7.9460   10.5480    4.6380 C.2   190  TRP190      0.2264
     94  O          8.2080    9.3890    4.3130 O.2   190  TRP190     -0.2867
     95  CB         7.6800   10.8440    7.0980 C.3   190  TRP190      0.0550
     96  CG         6.8010   11.2150    8.2470 C.ar  190  TRP190      0.0003
     97  CD1        6.3370   10.3870    9.2290 C.ar  190  TRP190      0.0946
     98  CD2        6.2710   12.5140    8.5370 C.ar  190  TRP190      0.0152
     99  NE1        5.5550   11.0900   10.1150 N.ar  190  TRP190     -0.2442
    100  CE2        5.4990   12.3980    9.7130 C.ar  190  TRP190      0.0810
    101  CE3        6.3770   13.7660    7.9140 C.ar  190  TRP190      0.0012
    102  CZ2        4.8330   13.4880   10.2810 C.ar  190  TRP190      0.0191
    103  CZ3        5.7130   14.8490    8.4800 C.ar  190  TRP190      0.0001
    104  CH2        4.9520   14.7020    9.6520 C.ar  190  TRP190      0.0015
@<TRIPOS>BOND
     1    94    93    2
     2    93    92    1
     3    92    91    1
     4    92    95    1
     5    29    28    1
     6    29    30    2
     7    28    27    1
     8    28    31    1
     9    95    96    1
    10    31    32    1
    11   101   103   ar
    12   101    98   ar
    13    96    98   ar
    14    96    97   ar
    15   103   104   ar
    16    98   100   ar
    17    32    33    1
    18    97    99   ar
    19    20    19    1
    20    20    21    2
    21   104   102   ar
    22   100    99   ar
    23   100   102   ar
    24    33    34    1
    25    19    22    1
    26    19    18    1
    27    34    35    1
    28    22    23    1
    29    23    24    1
    30    24    25    1
    31    25    26    1
    32    36    37    1
    33    39    38    2
    34    37    38    1
    35    37    40    1
    36    38    43   am
    37    41    40    1
    38    40    42    1
    39    90    88    1
    40    43    44    1
    41    47    44    1
    42    47    48    1
    43    44    45    1
    44    86    85    1
    45    86    87    2
    46    16    15   ar
    47    85    88    1
    48    85    84    1
    49    49    48   ar
    50    88    89    1
    51    17    15   ar
    52    48    50   ar
    53    15    14    1
    54    45    51   am
    55    45    46    2
    56    51    52    1
    57    13    14    1
    58    13    10    1
    59    57    55    1
    60    56    55    1
    61    11    10    1
    62    11    12    2
    63    10     9    1
    64    55    52    1
    65    52    53    1
    66    72    70    1
    67    53    54    2
    68     7     6    2
    69     8     6   am
    70    70    71    1
    71    70    69    1
    72     6     5    1
    73    76    75    2
    74    63    62    1
    75    61    60    2
    76    69    66    1
    77    68    67    2
    78    66    67    1
    79    66    65    1
    80    83    81    1
    81    75    74    1
    82    62    64    1
    83    62    59    1
    84     5     2    1
    85    60    65   am
    86    60    59    1
    87     3     2    1
    88     3     4    2
    89    81    80    2
    90    81    82    1
    91    80    79    1
    92    59    58    1
    93     2     1    1
    94    73    74    1
    95    74    77    1
    96    77    78    1
    97    78    79    1
