@<TRIPOS>MOLECULE
tmp/1yt0A01.pdb
 90 81 0 0 0
SMALL
GASTEIGER

@<TRIPOS>ATOM
      1  N         -4.0940   24.8220    6.1620 N.3    71  LEU71      -0.1245
      2  CA        -2.9700   25.0040    7.0610 C.3    71  LEU71       0.1561
      3  C         -1.6440   24.4510    6.5700 C.2    71  LEU71       0.2260
      4  O         -1.5870   23.6350    5.6550 O.2    71  LEU71      -0.2867
      5  CB        -3.2920   24.3890    8.4220 C.3    71  LEU71       0.0270
      6  CG        -4.5260   24.8990    9.1730 C.3    71  LEU71       0.0019
      7  CD1       -4.5800   24.1710   10.5120 C.3    71  LEU71       0.0001
      8  CD2       -4.4760   26.4260    9.3870 C.3    71  LEU71       0.0001
      9  N          1.9640   23.2430    8.6080 N.3    73  HIS73      -0.1241
     10  CA         2.6290   23.0590    9.8930 C.3    73  HIS73       0.1621
     11  C          4.1090   22.7730    9.7270 C.2    73  HIS73       0.2264
     12  O          4.5100   22.0760    8.7980 O.2    73  HIS73      -0.2867
     13  CB         2.0030   21.8910   10.6520 C.3    73  HIS73       0.0745
     14  CG         0.5200   21.9860   10.8160 C.ar   73  HIS73       0.0817
     15  ND1       -0.0750   22.6970   11.8370 N.ar   73  HIS73      -0.2268
     16  CD2       -0.4910   21.4190   10.1170 C.ar   73  HIS73       0.1154
     17  CE1       -1.3870   22.5600   11.7610 C.ar   73  HIS73       0.1986
     18  NE2       -1.6660   21.7890   10.7260 N.ar   73  HIS73      -0.2212
     19  N          0.1580   30.6740   14.3310 N.3   108  ILE108     -0.1245
     20  CA        -0.0230   29.9820   15.5920 C.3   108  ILE108      0.1561
     21  C          1.2690   29.2480   15.8880 C.2   108  ILE108      0.2260
     22  O          1.8460   28.6130   15.0000 O.2   108  ILE108     -0.2867
     23  CB        -1.1800   28.9590   15.5030 C.3   108  ILE108      0.0252
     24  CG1       -2.4800   29.6770   15.1300 C.3   108  ILE108      0.0019
     25  CG2       -1.3450   28.2280   16.8380 C.3   108  ILE108      0.0019
     26  CD1       -3.0820   29.2230   13.8250 C.3   108  ILE108      0.0001
     27  N          2.7480   26.6160   18.7080 N.3   110  THR110     -0.1218
     28  CA         2.5210   25.6800   19.7930 C.3   110  THR110      0.1862
     29  C          3.9090   25.2310   20.2180 C.2   110  THR110      0.2287
     30  O          4.6900   24.7610   19.3880 O.2   110  THR110     -0.2866
     31  CB         1.6940   24.4880   19.2650 C.3   110  THR110      0.1770
     32  OG1        0.4820   24.9880   18.6880 O.3   110  THR110     -0.2211
     33  CG2        1.3650   23.5000   20.3800 C.3   110  THR110      0.0375
     34  N          3.0190   22.8930   27.7740 N.3   118  GLN118     -0.1245
     35  CA         2.7740   23.2580   26.3840 C.3   118  GLN118      0.1566
     36  C          1.7960   24.4320   26.2470 C.2   118  GLN118      0.2260
     37  O          0.6780   24.4040   26.7750 O.2   118  GLN118     -0.2867
     38  CB         2.2380   22.0450   25.6330 C.3   118  GLN118      0.0367
     39  CG         2.1200   22.2280   24.1480 C.3   118  GLN118      0.0905
     40  CD         1.9120   20.9090   23.4480 C.2   118  GLN118      0.2608
     41  OE1        2.7060   19.9800   23.6060 O.2   118  GLN118     -0.2717
     42  NE2        0.8490   20.8170   22.6600 N.am  118  GLN118     -0.0878
     43  N          0.3520   27.8660   23.5560 N.3   120  ILE120     -0.1245
     44  CA         0.0290   28.2600   22.2010 C.3   120  ILE120      0.1561
     45  C          0.0790   29.7880   22.1460 C.2   120  ILE120      0.2260
     46  O         -0.4750   30.4780   23.0100 O.2   120  ILE120     -0.2867
     47  CB        -1.3820   27.7820   21.8000 C.3   120  ILE120      0.0252
     48  CG1       -1.5320   26.2770   22.0870 C.3   120  ILE120      0.0019
     49  CG2       -1.6130   28.0160   20.3040 C.3   120  ILE120      0.0019
     50  CD1       -2.9350   25.7120   21.7610 C.3   120  ILE120      0.0001
     51  N         -4.9200   20.9520   25.1640 N.3   135  ARG135     -0.1245
     52  CA        -4.6780   19.5980   24.6700 C.3   135  ARG135      0.1563
     53  C         -3.5230   18.9410   25.4340 C.2   135  ARG135      0.2260
     54  O         -3.1080   17.8240   25.1080 O.2   135  ARG135     -0.2867
     55  CB        -4.3330   19.6260   23.1810 C.3   135  ARG135      0.0307
     56  CG        -5.4720   20.0760   22.3020 C.3   135  ARG135      0.0489
     57  CD        -4.9710   20.4190   20.9270 C.3   135  ARG135      0.2205
     58  NE        -3.9080   21.4240   20.9740 N.pl3 135  ARG135     -0.0865
     59  CZ        -3.2190   21.8170   19.9060 C.cat 135  ARG135      0.5346
     60  NH1       -3.4960   21.2930   18.7160 N.pl3 135  ARG135      0.1354
     61  NH2       -2.2350   22.7040   20.0270 N.pl3 135  ARG135      0.1354
     62  N          1.3310   17.4020   24.0560 N.3   138  THR138     -0.1203
     63  CA         1.2600   16.4600   22.9390 C.3   138  THR138      0.1994
     64  C          2.5100   16.4670   22.0650 C.2   138  THR138      0.2617
     65  O          2.7110   15.5660   21.2500 O.2   138  THR138     -0.2717
     66  CB         0.0300   16.7650   22.0180 C.3   138  THR138      0.1784
     67  OG1        0.2800   17.9460   21.2470 O.3   138  THR138     -0.2211
     68  CG2       -1.2300   16.9900   22.8510 C.3   138  THR138      0.0376
     69  N          3.3510   17.4840   22.2300 N.am  139  LEU139     -0.1979
     70  CA         4.5780   17.6000   21.4380 C.3   139  LEU139      0.1596
     71  C          5.7370   16.8170   22.0410 C.2   139  LEU139      0.2287
     72  O          6.6070   16.3190   21.3210 O.2   139  LEU139     -0.2864
     73  CB         4.9840   19.0780   21.3000 C.3   139  LEU139      0.0297
     74  CG         4.1940   19.9710   20.3250 C.3   139  LEU139      0.0022
     75  CD1        4.7370   21.4050   20.3860 C.3   139  LEU139      0.0001
     76  CD2        4.2860   19.4040   18.9040 C.3   139  LEU139      0.0001
     77  N          5.6920   23.8310   17.0330 N.3   144  THR144     -0.1218
     78  CA         4.9660   23.6460   15.7960 C.3   144  THR144      0.1862
     79  C          4.5470   25.0440   15.3430 C.2   144  THR144      0.2287
     80  O          3.9730   25.8090   16.1130 O.2   144  THR144     -0.2866
     81  CB         3.7130   22.7320   15.9720 C.3   144  THR144      0.1770
     82  OG1        4.1290   21.3590   16.0770 O.3   144  THR144     -0.2211
     83  CG2        2.7580   22.8950   14.7910 C.3   144  THR144      0.0375
     84  N          2.2220   26.8600   12.8620 N.3   146  THR146     -0.1218
     85  CA         1.0690   26.6750   11.9990 C.3   146  THR146      0.1862
     86  C          0.6720   27.9990   11.3970 C.2   146  THR146      0.2287
     87  O          0.4550   28.9930   12.0940 O.2   146  THR146     -0.2866
     88  CB        -0.1560   26.1280   12.7400 C.3   146  THR146      0.1770
     89  OG1        0.2130   24.9580   13.4680 O.3   146  THR146     -0.2211
     90  CG2       -1.2760   25.7760   11.7440 C.3   146  THR146      0.0375
@<TRIPOS>BOND
     1     4     3    2
     2     1     2    1
     3     3     2    1
     4     2     5    1
     5     5     6    1
     6     9    10    1
     7    12    11    2
     8     6     8    1
     9     6     7    1
    10    11    10    1
    11    10    13    1
    12    16    18   ar
    13    16    14   ar
    14    13    14    1
    15    18    17   ar
    16    14    15   ar
    17    86    85    1
    18    86    87    2
    19    90    88    1
    20    17    15   ar
    21    85    88    1
    22    85    84    1
    23    88    89    1
    24    26    24    1
    25    19    20    1
    26    83    81    1
    27    22    21    2
    28    24    23    1
    29    79    78    1
    30    79    80    2
    31    23    20    1
    32    23    25    1
    33    20    21    1
    34    78    81    1
    35    78    77    1
    36    81    82    1
    37    32    31    1
    38    27    28    1
    39    60    59    1
    40    76    74    1
    41    31    28    1
    42    31    33    1
    43    30    29    2
    44    28    29    1
    45    59    61    1
    46    59    58    2
    47    49    47    1
    48    74    75    1
    49    74    73    1
    50    57    58    1
    51    57    56    1
    52    67    66    1
    53    65    64    2
    54    73    70    1
    55    72    71    2
    56    70    71    1
    57    70    69    1
    58    50    48    1
    59    47    48    1
    60    47    44    1
    61    66    68    1
    62    66    63    1
    63    64    69   am
    64    64    63    1
    65    45    44    1
    66    45    46    2
    67    44    43    1
    68    56    55    1
    69    42    40   am
    70    63    62    1
    71    55    52    1
    72    40    41    2
    73    40    39    1
    74    39    38    1
    75    52    51    1
    76    52    53    1
    77    54    53    2
    78    38    35    1
    79    36    35    1
    80    36    37    2
    81    35    34    1
