@<TRIPOS>MOLECULE
tmp/1yt1B04.pdb
 117 105 0 0 0
SMALL
GASTEIGER

@<TRIPOS>ATOM
      1  N       -140.9060  -28.8850   90.8190 N.3    40  LEU40      -0.1245
      2  CA      -140.2850  -29.8600   91.7100 C.3    40  LEU40       0.1561
      3  C       -141.0860  -30.0140   92.9980 C.2    40  LEU40       0.2260
      4  O       -141.2590  -31.1240   93.4980 O.2    40  LEU40      -0.2867
      5  CB      -138.8340  -29.4640   92.0290 C.3    40  LEU40       0.0270
      6  CG      -137.8760  -29.6310   90.8360 C.3    40  LEU40       0.0019
      7  CD1     -136.4700  -29.1470   91.2040 C.3    40  LEU40       0.0001
      8  CD2     -137.8480  -31.0960   90.4070 C.3    40  LEU40       0.0001
      9  N       -144.1540  -32.0220   92.0900 N.3    43  ASN43      -0.1225
     10  CA      -143.9310  -33.4580   91.9910 C.3    43  ASN43       0.1785
     11  C       -143.7410  -34.0440   93.3860 C.2    43  ASN43       0.2597
     12  O       -144.2100  -35.1430   93.6770 O.2    43  ASN43      -0.2718
     13  CB      -142.7030  -33.7630   91.1350 C.3    43  ASN43       0.1169
     14  CG      -142.9310  -33.4810   89.6580 C.2    43  ASN43       0.2627
     15  OD1     -144.0580  -33.5340   89.1700 O.2    43  ASN43      -0.2716
     16  ND2     -141.8540  -33.2000   88.9380 N.am   43  ASN43      -0.0877
     17  N       -143.0490  -33.3050   94.2490 N.am   44  ALA44      -0.1979
     18  CA      -142.8250  -33.7670   95.6140 C.3    44  ALA44       0.1597
     19  C       -144.1860  -34.0080   96.2750 C.2    44  ALA44       0.2287
     20  O       -144.3800  -35.0060   96.9660 O.2    44  ALA44      -0.2864
     21  CB      -142.0250  -32.7220   96.4040 C.3    44  ALA44       0.0319
     22  N       -145.8930  -37.1550   94.9340 N.3    47  ALA47      -0.1245
     23  CA      -145.2180  -38.3220   95.4820 C.3    47  ALA47       0.1562
     24  C       -145.7460  -38.6200   96.8740 C.2    47  ALA47       0.2260
     25  O       -145.9050  -39.7850   97.2550 O.2    47  ALA47      -0.2867
     26  CB      -143.7070  -38.0820   95.5400 C.3    47  ALA47       0.0290
     27  N       -149.2030  -40.0420   96.7890 N.3    50  LYS50      -0.1245
     28  CA      -149.1550  -41.4390   96.3980 C.3    50  LYS50       0.1561
     29  C       -148.9320  -42.3800   97.5800 C.2    50  LYS50       0.2260
     30  O       -149.6610  -43.3580   97.7320 O.2    50  LYS50      -0.2867
     31  CB      -148.0830  -41.6590   95.3280 C.3    50  LYS50       0.0271
     32  CG      -148.4720  -41.1180   93.9620 C.3    50  LYS50       0.0035
     33  CD      -147.3440  -41.2760   92.9450 C.3    50  LYS50       0.0206
     34  CE      -147.7410  -40.7190   91.5790 C.3    50  LYS50       0.1093
     35  NZ      -146.5810  -40.6930   90.6350 N.3    50  LYS50      -0.1314
     36  N       -138.3070  -35.3190   99.3460 N.3    85  ASP85      -0.1239
     37  CA      -139.6470  -35.6530   99.8110 C.3    85  ASP85       0.1674
     38  C       -139.6240  -37.0620  100.3860 C.2    85  ASP85       0.2266
     39  O       -138.7910  -37.8930  100.0010 O.2    85  ASP85      -0.2867
     40  CB      -140.6920  -35.5600   98.6760 C.3    85  ASP85       0.1410
     41  CG      -140.5420  -36.6570   97.6200 C.2    85  ASP85       0.3668
     42  OD1     -140.7180  -37.8530   97.9430 O.co2  85  ASP85      -0.2456
     43  OD2     -140.2550  -36.3190   96.4530 O.co2  85  ASP85      -0.2456
     44  N       -141.4260  -42.6070   96.5540 N.3    89  GLY89      -0.1210
     45  CA      -140.1530  -43.0110   95.9860 C.3    89  GLY89       0.1956
     46  C       -140.3060  -43.7780   94.6830 C.2    89  GLY89       0.2611
     47  O       -141.4210  -43.9930   94.2060 O.2    89  GLY89      -0.2717
     48  N       -139.1840  -44.1840   94.1010 N.am   90  MET90      -0.1979
     49  CA      -139.2130  -44.9290   92.8490 C.3    90  MET90       0.1605
     50  C       -138.2410  -46.0990   92.8590 C.2    90  MET90       0.2287
     51  O       -137.1290  -45.9860   93.3770 O.2    90  MET90      -0.2864
     52  CB      -138.8750  -44.0060   91.6770 C.3    90  MET90       0.0413
     53  CG      -139.9280  -42.9320   91.4120 C.3    90  MET90       0.0598
     54  SD      -139.3280  -41.6230   90.3210 S.3    90  MET90      -0.1393
     55  CE      -138.5070  -40.5660   91.5060 C.3    90  MET90       0.0692
     56  N       -139.8510  -44.2840   83.9110 N.3    98  ASN98      -0.1225
     57  CA      -140.5470  -43.0300   84.1690 C.3    98  ASN98       0.1785
     58  C       -139.8000  -41.7560   83.8180 C.2    98  ASN98       0.2597
     59  O       -140.4260  -40.7390   83.5160 O.2    98  ASN98      -0.2718
     60  CB      -140.9750  -42.9690   85.6370 C.3    98  ASN98       0.1169
     61  CG      -142.0940  -43.9420   85.9580 C.2    98  ASN98       0.2627
     62  OD1     -142.2360  -44.9800   85.3150 O.2    98  ASN98      -0.2716
     63  ND2     -142.8870  -43.6140   86.9700 N.am   98  ASN98      -0.0877
     64  N       -138.4740  -41.7850   83.8570 N.am   99  LEU99      -0.1980
     65  CA      -137.7270  -40.5750   83.5370 C.3    99  LEU99       0.1596
     66  C       -137.0540  -40.6120   82.1670 C.2    99  LEU99       0.2287
     67  O       -136.7050  -39.5670   81.6210 O.2    99  LEU99      -0.2864
     68  CB      -136.6890  -40.2960   84.6230 C.3    99  LEU99       0.0297
     69  CG      -137.1960  -40.2520   86.0730 C.3    99  LEU99       0.0022
     70  CD1     -136.0200  -39.9850   87.0040 C.3    99  LEU99       0.0001
     71  CD2     -138.2650  -39.1840   86.2390 C.3    99  LEU99       0.0001
     72  N       -148.2780  -41.7620   78.4330 N.3   104  LYS104     -0.1245
     73  CA      -149.4800  -41.0580   78.8600 C.3   104  LYS104      0.1561
     74  C       -150.4500  -40.8550   77.7000 C.2   104  LYS104      0.2260
     75  O       -151.2760  -39.9430   77.7280 O.2   104  LYS104     -0.2867
     76  CB      -149.1040  -39.7130   79.4700 C.3   104  LYS104      0.0271
     77  CG      -148.1670  -39.8950   80.6400 C.3   104  LYS104      0.0035
     78  CD      -147.9100  -38.6220   81.3870 C.3   104  LYS104      0.0206
     79  CE      -147.0520  -38.9470   82.6020 C.3   104  LYS104      0.1093
     80  NZ      -146.7780  -37.7410   83.4030 N.3   104  LYS104     -0.1314
     81  N       -147.8810  -33.2700   83.0320 N.3   132  GLY132     -0.1225
     82  CA      -147.0490  -33.9650   84.0020 C.3   132  GLY132      0.1811
     83  C       -145.6030  -34.2100   83.6060 C.2   132  GLY132      0.2280
     84  O       -145.0550  -35.2820   83.8700 O.2   132  GLY132     -0.2866
     85  N       -140.8540  -32.1750   85.6330 N.3   135  PHE135     -0.1241
     86  CA      -139.5410  -32.6240   86.0750 C.3   135  PHE135      0.1605
     87  C       -138.4390  -32.0780   85.1730 C.2   135  PHE135      0.2264
     88  O       -137.4190  -31.5830   85.6510 O.2   135  PHE135     -0.2867
     89  CB      -139.4790  -34.1570   86.0670 C.3   135  PHE135      0.0534
     90  CG      -138.0890  -34.7130   86.2740 C.ar  135  PHE135     -0.0203
     91  CD1     -137.4810  -34.6640   87.5270 C.ar  135  PHE135     -0.0042
     92  CD2     -137.3840  -35.2750   85.2110 C.ar  135  PHE135     -0.0042
     93  CE1     -136.1910  -35.1700   87.7130 C.ar  135  PHE135     -0.0003
     94  CE2     -136.1010  -35.7760   85.3930 C.ar  135  PHE135     -0.0003
     95  CZ      -135.5050  -35.7240   86.6460 C.ar  135  PHE135     -0.0000
     96  N       -131.2640  -37.8830   90.6900 N.3   147  VAL147     -0.1245
     97  CA      -132.4640  -38.3570   91.3790 C.3   147  VAL147      0.1561
     98  C       -132.1510  -39.5730   92.2510 C.2   147  VAL147      0.2260
     99  O       -131.9750  -40.6820   91.7500 O.2   147  VAL147     -0.2867
    100  CB      -133.5830  -38.7110   90.3510 C.3   147  VAL147      0.0252
    101  CG1     -134.8270  -39.2240   91.0530 C.3   147  VAL147      0.0019
    102  CG2     -133.9330  -37.4750   89.5390 C.3   147  VAL147      0.0019
    103  N       -137.5230  -39.4170   97.8870 N.3   181  THR181     -0.1218
    104  CA      -136.7120  -38.9690   96.7770 C.3   181  THR181      0.1862
    105  C       -136.0100  -37.6450   97.0170 C.2   181  THR181      0.2287
    106  O       -136.5560  -36.7340   97.6410 O.2   181  THR181     -0.2866
    107  CB      -137.5950  -38.8030   95.5070 C.3   181  THR181      0.1770
    108  OG1     -138.1830  -40.0620   95.1660 O.3   181  THR181     -0.2211
    109  CG2     -136.7760  -38.2850   94.3310 C.3   181  THR181      0.0375
    110  N       -134.1180  -34.7640   94.7520 N.3   183  ILE183     -0.1245
    111  CA      -133.7900  -34.2630   93.4280 C.3   183  ILE183      0.1561
    112  C       -132.6400  -33.3210   93.7120 C.2   183  ILE183      0.2260
    113  O       -132.8110  -32.3520   94.4540 O.2   183  ILE183     -0.2867
    114  CB      -134.9250  -33.4220   92.8120 C.3   183  ILE183      0.0252
    115  CG1     -136.2380  -34.2120   92.8010 C.3   183  ILE183      0.0019
    116  CG2     -134.5280  -32.9990   91.3860 C.3   183  ILE183      0.0019
    117  CD1     -136.2450  -35.3970   91.8480 C.3   183  ILE183      0.0001
@<TRIPOS>BOND
     1    74    75    2
     2    74    73    1
     3    72    73    1
     4    73    76    1
     5    76    77    1
     6    77    78    1
     7    78    79    1
     8    67    66    2
     9    66    65    1
    10    79    80    1
    11    81    82    1
    12    59    58    2
    13    65    64    1
    14    65    68    1
    15    83    84    2
    16    83    82    1
    17    58    64   am
    18    58    57    1
    19    56    57    1
    20    57    60    1
    21    68    69    1
    22    87    88    2
    23    87    86    1
    24    92    94   ar
    25    92    90   ar
    26    62    61    2
    27    94    95   ar
    28    85    86    1
    29    60    61    1
    30    61    63   am
    31    89    86    1
    32    89    90    1
    33    69    71    1
    34    69    70    1
    35    90    91   ar
    36    95    93   ar
    37    91    93   ar
    38    16    14   am
    39    15    14    2
    40   102   100    1
    41    14    13    1
    42    54    53    1
    43    54    55    1
    44   100   101    1
    45   100    97    1
    46     8     6    1
    47    35    34    1
    48    96    97    1
    49     1     2    1
    50     6     7    1
    51     6     5    1
    52    13    10    1
    53    97    98    1
    54   116   114    1
    55    53    52    1
    56    34    33    1
    57    52    49    1
    58     2     5    1
    59     2     3    1
    60    99    98    2
    61   117   115    1
    62    10     9    1
    63    10    11    1
    64   115   114    1
    65   114   111    1
    66    49    50    1
    67    49    48    1
    68    50    51    2
    69    33    32    1
    70     3     4    2
    71    11    12    2
    72    11    17   am
    73   111   112    1
    74   111   110    1
    75   112   113    2
    76    32    31    1
    77    48    46   am
    78    47    46    2
    79    17    18    1
    80   109   107    1
    81    46    45    1
    82    22    23    1
    83   108   107    1
    84    31    28    1
    85    23    26    1
    86    23    24    1
    87   107   104    1
    88    18    19    1
    89    18    21    1
    90    45    44    1
    91    19    20    2
    92    28    27    1
    93    28    29    1
    94    43    41   ar
    95   104   105    1
    96   104   103    1
    97    24    25    2
    98   105   106    2
    99    29    30    2
   100    41    42   ar
   101    41    40    1
   102    40    37    1
   103    36    37    1
   104    37    38    1
   105    39    38    2
