@<TRIPOS>MOLECULE
tmp/1yt2A02.pdb
 91 83 0 0 0
SMALL
GASTEIGER

@<TRIPOS>ATOM
      1  N         32.3590   21.0480   21.2230 N.3    35  ASN35      -0.1225
      2  CA        30.9380   20.9790   21.5140 C.3    35  ASN35       0.1785
      3  C         30.3370   22.3670   21.7750 C.2    35  ASN35       0.2597
      4  O         29.3250   22.7190   21.1780 O.2    35  ASN35      -0.2718
      5  CB        30.6680   20.1060   22.7330 C.3    35  ASN35       0.1169
      6  CG        31.0080   18.6670   22.5050 C.2    35  ASN35       0.2627
      7  OD1       31.0680   18.2090   21.3680 O.2    35  ASN35      -0.2716
      8  ND2       31.2160   17.9380   23.5800 N.am   35  ASN35      -0.0877
      9  N         30.9590   23.1330   22.6700 N.am   36  ALA36      -0.1979
     10  CA        30.4640   24.4640   23.0230 C.3    36  ALA36       0.1597
     11  C         30.3270   25.2600   21.7660 C.2    36  ALA36       0.2287
     12  O         29.3030   25.8940   21.5130 O.2    36  ALA36      -0.2864
     13  CB        31.4270   25.1630   23.9520 C.3    36  ALA36       0.0319
     14  N         27.4380   24.3730   19.7890 N.3    39  ALA39      -0.1245
     15  CA        26.2480   24.8400   20.4840 C.3    39  ALA39       0.1562
     16  C         25.9850   26.3080   20.2340 C.2    39  ALA39       0.2260
     17  O         24.8300   26.7230   20.1190 O.2    39  ALA39      -0.2867
     18  CB        26.3880   24.6020   21.9610 C.3    39  ALA39       0.0290
     19  N         28.8570   27.5400   28.0850 N.3    77  ASP77      -0.1239
     20  CA        28.6610   28.2040   26.8060 C.3    77  ASP77       0.1674
     21  C         27.2460   28.7560   26.7660 C.2    77  ASP77       0.2266
     22  O         26.3410   28.1840   27.3610 O.2    77  ASP77      -0.2867
     23  CB        28.8050   27.1870   25.6870 C.3    77  ASP77       0.1410
     24  CG        27.6880   26.1600   25.6990 C.2    77  ASP77       0.3668
     25  OD1       26.5110   26.5430   25.5790 O.co2  77  ASP77      -0.2456
     26  OD2       27.9780   24.9580   25.8270 O.co2  77  ASP77      -0.2456
     27  N         22.9960   26.9430   22.3250 N.3    80  VAL80      -0.1231
     28  CA        21.5800   26.6730   22.2130 C.3    80  VAL80       0.1692
     29  C         20.9800   26.0520   23.4760 C.2    80  VAL80       0.2593
     30  O         19.8010   26.2740   23.7800 O.2    80  VAL80      -0.2718
     31  CB        21.3180   25.7380   21.0500 C.3    80  VAL80       0.0266
     32  CG1       22.0000   24.4090   21.3110 C.3    80  VAL80       0.0020
     33  CG2       19.8210   25.5760   20.8520 C.3    80  VAL80       0.0020
     34  N         21.7850   25.2700   24.1970 N.am   81  GLY81      -0.1942
     35  CA        21.3130   24.6160   25.4110 C.3    81  GLY81       0.2014
     36  C         20.5020   23.3630   25.1150 C.2    81  GLY81       0.2638
     37  O         20.1340   23.1110   23.9630 O.2    81  GLY81      -0.2714
     38  N         20.2140   22.5690   26.1430 N.am   82  MET82      -0.1976
     39  CA        19.4350   21.3470   25.9560 C.3    82  MET82       0.1605
     40  C         18.1970   21.2430   26.8370 C.2    82  MET82       0.2287
     41  O         18.2140   21.6540   27.9960 O.2    82  MET82      -0.2864
     42  CB        20.3260   20.1340   26.1900 C.3    82  MET82       0.0413
     43  CG        21.3430   19.9480   25.0830 C.3    82  MET82       0.0598
     44  SD        22.3720   18.4820   25.2150 S.3    82  MET82      -0.1393
     45  CE        23.5550   19.1230   26.3070 C.3    82  MET82       0.0692
     46  N         20.1490   12.6000   23.9170 N.3    90  ASN90      -0.1225
     47  CA        21.4160   12.9850   23.2900 C.3    90  ASN90       0.1785
     48  C         22.6540   12.4680   24.0240 C.2    90  ASN90       0.2597
     49  O         23.6670   12.1640   23.3990 O.2    90  ASN90      -0.2718
     50  CB        21.5040   14.5140   23.1710 C.3    90  ASN90       0.1169
     51  CG        20.6230   15.0780   22.0560 C.2    90  ASN90       0.2627
     52  OD1       19.4490   14.7260   21.9240 O.2    90  ASN90      -0.2716
     53  ND2       21.1910   15.9810   21.2610 N.am   90  ASN90      -0.0877
     54  N         22.5680   12.3800   25.3490 N.am   91  LEU91      -0.1980
     55  CA        23.6820   11.9050   26.1660 C.3    91  LEU91       0.1596
     56  C         23.5460   10.4340   26.5370 C.2    91  LEU91       0.2287
     57  O         24.5440    9.7320   26.6960 O.2    91  LEU91      -0.2864
     58  CB        23.7920   12.7320   27.4490 C.3    91  LEU91       0.0297
     59  CG        24.0940   14.2100   27.2200 C.3    91  LEU91       0.0022
     60  CD1       24.1540   14.9040   28.5580 C.3    91  LEU91       0.0001
     61  CD2       25.4050   14.3710   26.4660 C.3    91  LEU91       0.0001
     62  N         31.8040   14.3220   16.5310 N.3   124  GLY124     -0.1225
     63  CA        31.4640   15.0500   17.7410 C.3   124  GLY124      0.1811
     64  C         30.9660   14.2360   18.9140 C.2   124  GLY124      0.2280
     65  O         30.0240   14.6400   19.6130 O.2   124  GLY124     -0.2866
     66  N         32.3420   14.2130   23.9940 N.3   127  PHE127     -0.1241
     67  CA        31.8530   14.4610   25.3330 C.3   127  PHE127      0.1605
     68  C         32.2980   13.3910   26.3210 C.2   127  PHE127      0.2264
     69  O         32.7370   13.7140   27.4270 O.2   127  PHE127     -0.2867
     70  CB        30.3290   14.5540   25.3150 C.3   127  PHE127      0.0534
     71  CG        29.7040   14.5480   26.6830 C.ar  127  PHE127     -0.0203
     72  CD1       29.8820   15.6160   27.5530 C.ar  127  PHE127     -0.0042
     73  CD2       28.9800   13.4450   27.1110 C.ar  127  PHE127     -0.0042
     74  CE1       29.3520   15.5870   28.8390 C.ar  127  PHE127     -0.0003
     75  CE2       28.4510   13.4020   28.3810 C.ar  127  PHE127     -0.0003
     76  CZ        28.6370   14.4760   29.2550 C.ar  127  PHE127     -0.0000
     77  N         24.8900   26.0170   28.6270 N.3   173  THR173     -0.1218
     78  CA        25.1230   24.7590   29.2970 C.3   173  THR173      0.1862
     79  C         26.4360   24.8060   30.0660 C.2   173  THR173      0.2287
     80  O         27.3990   25.4310   29.6230 O.2   173  THR173     -0.2866
     81  CB        25.1440   23.5980   28.2590 C.3   173  THR173      0.1770
     82  OG1       23.9150   23.5850   27.5110 O.3   173  THR173     -0.2211
     83  CG2       25.3060   22.2580   28.9570 C.3   173  THR173      0.0375
     84  N         29.2990   22.3360   31.8210 N.3   175  ILE175     -0.1245
     85  CA        29.7800   20.9800   31.9520 C.3   175  ILE175      0.1561
     86  C         30.6870   21.0180   33.1430 C.2   175  ILE175      0.2260
     87  O         31.7860   21.5490   33.0390 O.2   175  ILE175     -0.2867
     88  CB        30.6290   20.5430   30.7550 C.3   175  ILE175      0.0252
     89  CG1       29.8540   20.7360   29.4550 C.3   175  ILE175      0.0019
     90  CG2       30.9960   19.0760   30.8910 C.3   175  ILE175      0.0019
     91  CD1       28.7350   19.7550   29.2650 C.3   175  ILE175      0.0001
@<TRIPOS>BOND
     1    62    63    1
     2    63    64    1
     3    64    65    2
     4    14    15    1
     5    17    16    2
     6    16    15    1
     7    15    18    1
     8    33    31    1
     9    31    32    1
    10    31    28    1
    11     4     3    2
    12     1     2    1
    13    53    51   am
    14     7     6    2
    15    12    11    2
    16     2     3    1
    17     2     5    1
    18    11    10    1
    19     3     9   am
    20    52    51    2
    21    51    50    1
    22    28    27    1
    23    28    29    1
    24     6     5    1
    25     6     8   am
    26     9    10    1
    27    10    13    1
    28    50    47    1
    29    47    46    1
    30    47    48    1
    31    49    48    2
    32    29    30    2
    33    29    34   am
    34    37    36    2
    35    66    67    1
    36    48    54   am
    37    34    35    1
    38    43    44    1
    39    43    42    1
    40    36    35    1
    41    36    38   am
    42    44    45    1
    43    70    67    1
    44    70    71    1
    45    67    68    1
    46    54    55    1
    47    25    24   ar
    48    23    24    1
    49    23    20    1
    50    24    26   ar
    51    39    38    1
    52    39    42    1
    53    39    40    1
    54    55    56    1
    55    55    58    1
    56    68    69    2
    57    61    59    1
    58    56    57    2
    59    71    73   ar
    60    71    72   ar
    61    21    20    1
    62    21    22    2
    63    20    19    1
    64    40    41    2
    65    73    75   ar
    66    59    58    1
    67    59    60    1
    68    82    81    1
    69    72    74   ar
    70    81    83    1
    71    81    78    1
    72    75    76   ar
    73    77    78    1
    74    74    76   ar
    75    91    89    1
    76    78    79    1
    77    89    88    1
    78    80    79    2
    79    88    90    1
    80    88    85    1
    81    84    85    1
    82    85    86    1
    83    87    86    2
