@<TRIPOS>MOLECULE
tmp/1yt7A00.pdb
 173 170 0 0 0
SMALL
GASTEIGER

@<TRIPOS>ATOM
      1  N         11.4790   64.5390  200.5630 N.3    18  GLN18      -0.1231
      2  CA        12.9150   64.2890  200.3850 C.3    18  GLN18       0.1698
      3  C         13.3850   64.1300  198.9370 C.2    18  GLN18       0.2593
      4  O         14.5860   64.1400  198.6600 O.2    18  GLN18      -0.2718
      5  CB        13.3160   63.0390  201.1640 C.3    18  GLN18       0.0381
      6  CG        12.6550   61.8330  200.5220 C.3    18  GLN18       0.0905
      7  CD        13.2460   60.5710  201.1040 C.2    18  GLN18       0.2608
      8  OE1       12.8930   60.1540  202.2060 O.2    18  GLN18      -0.2717
      9  NE2       14.1690   59.9660  200.3720 N.am   18  GLN18      -0.0878
     10  N         12.4470   63.9810  198.0120 N.am   19  GLY19      -0.1942
     11  CA        12.8380   63.8020  196.6300 C.3    19  GLY19       0.2014
     12  C         13.4450   62.4230  196.4370 C.2    19  GLY19       0.2638
     13  O         13.1570   61.4990  197.2070 O.2    19  GLY19      -0.2714
     14  N         14.3040   62.2940  195.4270 N.am   20  GLN20      -0.1977
     15  CA        14.9440   61.0260  195.0880 C.3    20  GLN20       0.1601
     16  C         16.1440   60.6640  195.9630 C.2    20  GLN20       0.2287
     17  O         16.5120   59.4950  196.0590 O.2    20  GLN20      -0.2864
     18  CB        15.3500   61.0390  193.6070 C.3    20  GLN20       0.0394
     19  CG        15.6110   59.6140  193.1200 C.3    20  GLN20       0.0908
     20  CD        14.3720   58.7500  193.3380 C.2    20  GLN20       0.2608
     21  OE1       13.2470   59.1920  193.1110 O.2    20  GLN20      -0.2717
     22  NE2       14.5800   57.5050  193.7650 N.am   20  GLN20      -0.0878
     23  N         18.3250   59.3840  198.7370 N.3    22  GLY22      -0.1225
     24  CA        18.0450   58.3670  199.7420 C.3    22  GLY22       0.1811
     25  C         18.2920   58.8730  201.1520 C.2    22  GLY22       0.2280
     26  O         19.0800   58.3020  201.9070 O.2    22  GLY22      -0.2866
     27  N         15.7950   59.2800  203.5350 N.3    24  CYS24      -0.1221
     28  CA        14.6810   58.9730  204.4260 C.3    24  CYS24       0.1808
     29  C         15.1400   58.8760  205.8900 C.2    24  CYS24       0.2601
     30  O         14.4560   59.3580  206.7940 O.2    24  CYS24      -0.2717
     31  CB        13.9630   57.6790  203.9810 C.3    24  CYS24       0.0970
     32  SG        15.1420   56.2490  203.8460 S.3    24  CYS24      -0.0800
     33  N         16.3080   58.2800  206.1200 N.am   25  TRP25      -0.1976
     34  CA        16.8260   58.1410  207.4730 C.3    25  TRP25       0.1640
     35  C         17.1330   59.4940  208.1100 C.2    25  TRP25       0.2290
     36  O         17.0560   59.6460  209.3330 O.2    25  TRP25      -0.2864
     37  CB        18.0870   57.2810  207.4770 C.3    25  TRP25       0.0576
     38  CG        19.1200   57.8610  206.5620 C.ar   25  TRP25       0.0006
     39  CD1       19.2920   57.5860  205.2290 C.ar   25  TRP25       0.0946
     40  CD2       20.1620   58.7830  206.9200 C.ar   25  TRP25       0.0152
     41  NE1       20.3810   58.2740  204.7420 N.ar   25  TRP25      -0.2442
     42  CE2       20.9340   59.0140  205.7570 C.ar   25  TRP25       0.0810
     43  CE3       20.5190   59.4330  208.1110 C.ar   25  TRP25       0.0012
     44  CZ2       22.0450   59.8690  205.7530 C.ar   25  TRP25       0.0191
     45  CZ3       21.6230   60.2840  208.1060 C.ar   25  TRP25       0.0001
     46  CH2       22.3740   60.4920  206.9310 C.ar   25  TRP25       0.0015
     47  N         29.2890   60.5450  208.6570 N.3    57  SER57      -0.1202
     48  CA        30.2110   59.6880  207.9180 C.3    57  SER57       0.2020
     49  C         29.8780   58.1910  207.9590 C.2    57  SER57       0.2619
     50  O         30.2720   57.4510  207.0580 O.2    57  SER57      -0.2717
     51  CB        31.6480   59.9130  208.4030 C.3    57  SER57       0.2103
     52  OG        31.7520   59.5700  209.7710 O.3    57  SER57      -0.2182
     53  N         29.1510   57.7470  208.9830 N.am   58  GLU58      -0.1965
     54  CA        28.7850   56.3320  209.1080 C.3    58  GLU58       0.1733
     55  C         27.7120   55.9130  208.1100 C.2    58  GLU58       0.2616
     56  O         27.5690   54.7280  207.7960 O.2    58  GLU58      -0.2715
     57  CB        28.2920   56.0170  210.5270 C.3    58  GLU58       0.0429
     58  CG        29.4770   55.9420  211.4610 C.3    58  GLU58       0.1163
     59  CD        30.4260   54.8530  210.9900 C.2    58  GLU58       0.3649
     60  OE1       30.0330   53.6650  211.0170 O.co2  58  GLU58      -0.2457
     61  OE2       31.5630   55.1850  210.5900 O.co2  58  GLU58      -0.2457
     62  N         26.9500   56.8880  207.6300 N.am   59  ASN59      -0.1958
     63  CA        25.8960   56.6210  206.6680 C.3    59  ASN59       0.1819
     64  C         26.4010   56.8820  205.2540 C.2    59  ASN59       0.2621
     65  O         27.5790   57.1860  205.0580 O.2    59  ASN59      -0.2715
     66  CB        24.6480   57.4580  206.9910 C.3    59  ASN59       0.1195
     67  CG        24.0250   56.9390  208.2910 C.2    59  ASN59       0.2630
     68  OD1       24.2660   55.8020  208.6940 O.2    59  ASN59      -0.2716
     69  ND2       23.2120   57.7680  208.9380 N.am   59  ASN59      -0.0877
     70  N         25.5260   56.7470  204.2680 N.am   60  ASP60      -0.1971
     71  CA        25.9400   56.9300  202.8820 C.3    60  ASP60       0.1709
     72  C         25.2180   58.0680  202.1690 C.2    60  ASP60       0.2293
     73  O         24.9390   57.9790  200.9770 O.2    60  ASP60      -0.2864
     74  CB        25.7420   55.6150  202.1130 C.3    60  ASP60       0.1436
     75  CG        26.4900   55.6510  200.7790 C.2    60  ASP60       0.3671
     76  OD1       27.6370   56.1580  200.7390 O.co2  60  ASP60      -0.2456
     77  OD2       25.9360   55.1550  199.7740 O.co2  60  ASP60      -0.2456
     78  N         22.9570   60.1060  200.2740 N.3    62  CYS62      -0.1221
     79  CA        21.7910   59.7870  199.4650 C.3    62  CYS62       0.1808
     80  C         21.7140   58.2930  199.1690 C.2    62  CYS62       0.2602
     81  O         20.7850   57.8320  198.5050 O.2    62  CYS62      -0.2717
     82  CB        21.8270   60.5650  198.1460 C.3    62  CYS62       0.0970
     83  SG        21.4710   62.3160  198.4790 S.3    62  CYS62      -0.0800
     84  N         22.6990   57.5460  199.6660 N.am   63  GLY63      -0.1942
     85  CA        22.7350   56.1110  199.4520 C.3    63  GLY63       0.2014
     86  C         22.0390   55.3020  200.5330 C.2    63  GLY63       0.2639
     87  O         21.8360   54.1010  200.3710 O.2    63  GLY63      -0.2714
     88  N         21.6740   55.9490  201.6370 N.am   64  GLY64      -0.1939
     89  CA        21.0010   55.2360  202.7140 C.3    64  GLY64       0.2017
     90  C         21.7410   55.2890  204.0350 C.2    64  GLY64       0.2678
     91  O         22.9420   55.5600  204.0630 O.2    64  GLY64      -0.2710
     92  N         21.0350   55.0400  205.1360 N.am   65  GLY65      -0.1716
     93  CA        21.6860   55.0800  206.4340 C.2    65  GLY65       0.1480
     94  C         20.8260   54.7340  207.6330 C.2    65  GLY65       0.2820
     95  O         19.6110   54.6080  207.5210 O.2    65  GLY65      -0.2669
     96  N         21.4700   54.5830  208.7890 N.am   66  TYR66      -0.1925
     97  CA        20.7880   54.2460  210.0360 C.3    66  TYR66       0.1774
     98  C         20.5560   55.4790  210.8890 C.2    66  TYR66       0.2619
     99  O         21.4090   56.3710  210.9690 O.2    66  TYR66      -0.2715
    100  CB        21.6130   53.2370  210.8350 C.3    66  TYR66       0.0574
    101  CG        21.6780   51.9360  210.0740 C.ar   66  TYR66      -0.0198
    102  CD1       20.6690   50.9830  210.1990 C.ar   66  TYR66      -0.0009
    103  CD2       22.7310   51.6720  209.1980 C.ar   66  TYR66      -0.0009
    104  CE1       20.7040   49.7960  209.4690 C.ar   66  TYR66       0.0417
    105  CE2       22.7750   50.4870  208.4600 C.ar   66  TYR66       0.0417
    106  CZ        21.7560   49.5570  208.6010 C.ar   66  TYR66       0.1957
    107  OH        21.7820   48.4040  207.8550 O.3    66  TYR66      -0.2866
    108  N         19.3940   55.5190  211.5320 N.am   67  MET67      -0.1977
    109  CA        19.0340   56.6430  212.3850 C.3    67  MET67       0.1605
    110  C         19.9310   56.6950  213.6260 C.2    67  MET67       0.2287
    111  O         20.2830   57.7780  214.1010 O.2    67  MET67      -0.2864
    112  CB        17.5510   56.5610  212.8000 C.3    67  MET67       0.0413
    113  CG        16.6430   56.8000  211.5920 C.3    67  MET67       0.0598
    114  SD        16.4180   55.2690  210.6520 S.3    67  MET67      -0.1393
    115  CE        14.9100   54.6370  211.3600 C.3    67  MET67       0.0692
    116  N         11.8740   51.8770  211.2540 N.3   133  ALA133     -0.1245
    117  CA        12.1690   51.4180  209.9090 C.3   133  ALA133      0.1562
    118  C         11.0770   50.4420  209.5000 C.2   133  ALA133      0.2260
    119  O         10.5140   49.7510  210.3430 O.2   133  ALA133     -0.2867
    120  CB        13.5250   50.7330  209.8780 C.3   133  ALA133      0.0290
    121  N         13.5870   45.4690  205.8960 N.3   159  LEU159     -0.1231
    122  CA        13.5420   46.8650  206.3280 C.3   159  LEU159      0.1693
    123  C         14.3170   47.6780  205.2960 C.2   159  LEU159      0.2592
    124  O         15.4980   47.4270  205.0750 O.2   159  LEU159     -0.2718
    125  CB        14.1830   47.0220  207.7110 C.3   159  LEU159      0.0284
    126  CG        13.4730   46.1210  208.7300 C.3   159  LEU159      0.0019
    127  CD1       14.2580   46.1380  210.0180 C.3   159  LEU159      0.0001
    128  CD2       12.0390   46.5810  208.9660 C.3   159  LEU159      0.0001
    129  N         13.6590   48.6510  204.6690 N.am  160  ASN160     -0.1960
    130  CA        14.3230   49.4470  203.6470 C.3   160  ASN160      0.1819
    131  C         13.9340   50.9240  203.6000 C.2   160  ASN160      0.2621
    132  O         14.4580   51.6770  202.7780 O.2   160  ASN160     -0.2715
    133  CB        14.0550   48.8210  202.2760 C.3   160  ASN160      0.1195
    134  CG        12.5620   48.5830  202.1270 C.2   160  ASN160      0.2630
    135  OD1       11.7490   49.5070  202.2520 O.2   160  ASN160     -0.2716
    136  ND2       12.1900   47.3340  201.8590 N.am  160  ASN160     -0.0877
    137  N         13.0160   51.3430  204.4610 N.am  161  HIS161     -0.1959
    138  CA        12.5870   52.7360  204.4550 C.3   161  HIS161      0.1787
    139  C         12.4560   53.2800  205.8740 C.2   161  HIS161      0.2620
    140  O         11.9830   52.5790  206.7630 O.2   161  HIS161     -0.2715
    141  CB        11.2540   52.8530  203.7110 C.3   161  HIS161      0.0785
    142  CG        10.8940   54.2900  203.5020 C.ar  161  HIS161      0.0821
    143  ND1       11.7330   55.1840  202.8780 N.ar  161  HIS161     -0.2267
    144  CD2        9.7650   54.9790  203.7990 C.ar  161  HIS161      0.1154
    145  CE1       11.1420   56.3620  202.7950 C.ar  161  HIS161      0.1986
    146  NE2        9.9460   56.2640  203.3460 N.ar  161  HIS161     -0.2212
    147  N         12.8720   54.5280  206.0750 N.am  162  ALA162     -0.1977
    148  CA        12.8110   55.1570  207.3940 C.3   162  ALA162      0.1597
    149  C         11.6640   56.1480  207.5130 C.2   162  ALA162      0.2287
    150  O         11.4320   56.9580  206.6160 O.2   162  ALA162     -0.2864
    151  CB        14.1200   55.8610  207.7000 C.3   162  ALA162      0.0319
    152  N          7.2760   62.1730  201.9830 N.3   183  TRP183     -0.1241
    153  CA         6.9360   62.2420  200.5650 C.3   183  TRP183      0.1605
    154  C          5.9590   63.3700  200.2600 C.2   183  TRP183      0.2264
    155  O          5.2120   63.3100  199.2800 O.2   183  TRP183     -0.2867
    156  CB         6.3290   60.9120  200.0930 C.3   183  TRP183      0.0550
    157  CG         7.3190   59.7940  200.2020 C.ar  183  TRP183      0.0003
    158  CD1        8.6510   59.8880  200.5180 C.ar  183  TRP183      0.0946
    159  CD2        7.0640   58.4070  199.9560 C.ar  183  TRP183      0.0152
    160  NE1        9.2390   58.6450  200.4810 N.ar  183  TRP183     -0.2442
    161  CE2        8.2890   57.7180  200.1370 C.ar  183  TRP183      0.0810
    162  CE3        5.9190   57.6760  199.5980 C.ar  183  TRP183      0.0012
    163  CZ2        8.4010   56.3290  199.9710 C.ar  183  TRP183      0.0191
    164  CZ3        6.0310   56.2980  199.4330 C.ar  183  TRP183      0.0001
    165  CH2        7.2690   55.6400  199.6200 C.ar  183  TRP183      0.0015
    166  N         13.3680   47.9610  214.1030 N.3   208  LEU208     -0.1245
    167  CA        14.4820   48.8870  214.2300 C.3   208  LEU208      0.1561
    168  C         14.0130   50.2640  214.6430 C.2   208  LEU208      0.2260
    169  O         14.0910   51.2190  213.8710 O.2   208  LEU208     -0.2867
    170  CB        15.2450   48.9800  212.9050 C.3   208  LEU208      0.0270
    171  CG        16.6260   49.6110  213.1390 C.3   208  LEU208      0.0019
    172  CD1       17.4750   48.6940  214.0170 C.3   208  LEU208      0.0001
    173  CD2       17.3250   49.8360  211.8020 C.3   208  LEU208      0.0001
@<TRIPOS>BOND
     1    21    20    2
     2    19    20    1
     3    19    18    1
     4    20    22   am
     5    18    15    1
     6    15    14    1
     7    15    16    1
     8    14    12   am
     9    16    17    2
    10    12    11    1
    11    12    13    2
    12    11    10    1
    13    10     3   am
    14    82    83    1
    15    82    79    1
    16    81    80    2
    17     4     3    2
    18    23    24    1
    19     3     2    1
    20    80    79    1
    21    80    84   am
    22   155   154    2
    23   164   162   ar
    24   164   165   ar
    25    85    84    1
    26    85    86    1
    27    79    78    1
    28   162   159   ar
    29   165   163   ar
    30    24    25    1
    31    77    75   ar
    32   159   161   ar
    33   159   157   ar
    34   163   161   ar
    35   156   157    1
    36   156   153    1
    37   161   160   ar
    38   157   158   ar
    39   154   153    1
    40    87    86    2
    41     9     7   am
    42     2     1    1
    43     2     5    1
    44   160   158   ar
    45     6     7    1
    46     6     5    1
    47    86    88   am
    48   153   152    1
    49    76    75   ar
    50    75    74    1
    51    73    72    2
    52     7     8    2
    53    25    26    2
    54    88    89    1
    55   136   134   am
    56    74    71    1
    57   134   135    2
    58   134   133    1
    59    72    71    1
    60   133   130    1
    61    89    90    1
    62   132   131    2
    63   145   143   ar
    64   145   146   ar
    65   143   142   ar
    66    71    70    1
    67   146   144   ar
    68   142   141    1
    69   142   144   ar
    70    27    28    1
    71   131   130    1
    72   131   137   am
    73   130   129    1
    74   141   138    1
    75    32    31    1
    76    31    28    1
    77    90    91    2
    78    90    92    1
    79    70    64   am
    80    28    29    1
    81   138   137    1
    82   138   139    1
    83   129   123   am
    84    41    39   ar
    85    41    42   ar
    86    65    64    2
    87   124   123    2
    88    92    93    2
    89    39    38   ar
    90    64    63    1
    91   123   122    1
    92    44    42   ar
    93    44    46   ar
    94    42    40   ar
    95   139   147   am
    96   139   140    2
    97    29    33   am
    98    29    30    2
    99   121   122    1
   100   147   148    1
   101    33    34    1
   102   122   125    1
   103    93    94    1
   104    38    40   ar
   105    38    37    1
   106   150   149    2
   107    63    66    1
   108    63    62    1
   109    40    43   ar
   110    46    45   ar
   111    66    67    1
   112    50    49    2
   113   148   149    1
   114   148   151    1
   115    34    37    1
   116    34    35    1
   117    95    94    2
   118    62    55   am
   119    94    96   am
   120   125   126    1
   121    56    55    2
   122   107   106    1
   123    48    49    1
   124    48    51    1
   125    48    47    1
   126    49    53   am
   127    45    43   ar
   128    55    54    1
   129    35    36    2
   130    67    68    2
   131    67    69   am
   132    51    52    1
   133   105   106   ar
   134   105   103   ar
   135   106   104   ar
   136   126   128    1
   137   126   127    1
   138    96    97    1
   139    53    54    1
   140    54    57    1
   141   103   101   ar
   142   104   102   ar
   143   118   117    1
   144   118   119    2
   145   120   117    1
   146   117   116    1
   147    97   100    1
   148    97    98    1
   149   101   102   ar
   150   101   100    1
   151    57    58    1
   152    61    59   ar
   153   114   115    1
   154   114   113    1
   155    98    99    2
   156    98   108   am
   157    59    60   ar
   158    59    58    1
   159   108   109    1
   160   113   112    1
   161   173   171    1
   162   109   112    1
   163   109   110    1
   164   170   171    1
   165   170   167    1
   166   171   172    1
   167   110   111    2
   168   169   168    2
   169   166   167    1
   170   167   168    1
