@<TRIPOS>MOLECULE
tmp/1yt9B00.pdb
 105 99 0 0 0
SMALL
GASTEIGER

@<TRIPOS>ATOM
      1  N         11.9250   26.1790   -5.2770 N.3    23  LEU23      -0.1245
      2  CA        12.2380   27.1030   -4.2090 C.3    23  LEU23       0.1561
      3  C         13.7390   27.0820   -3.9070 C.2    23  LEU23       0.2260
      4  O         14.2800   26.0250   -3.5880 O.2    23  LEU23      -0.2867
      5  CB        11.4670   26.6780   -2.9720 C.3    23  LEU23       0.0270
      6  CG        11.3090   27.6800   -1.8410 C.3    23  LEU23       0.0019
      7  CD1       10.0600   28.5260   -2.1020 C.3    23  LEU23       0.0001
      8  CD2       11.2000   26.9300   -0.5220 C.3    23  LEU23       0.0001
      9  N         16.6390   27.2700   -1.6740 N.3    25  ASP25      -0.1239
     10  CA        16.6880   27.0770   -0.2320 C.3    25  ASP25       0.1674
     11  C         18.0710   26.8370    0.3720 C.2    25  ASP25       0.2266
     12  O         18.6280   25.7500    0.2260 O.2    25  ASP25      -0.2867
     13  CB        15.7850   25.8820    0.0970 C.3    25  ASP25       0.1410
     14  CG        15.3230   25.8730    1.5320 C.2    25  ASP25       0.3668
     15  OD1       16.1470   26.1650    2.4350 O.co2  25  ASP25      -0.2456
     16  OD2       14.1280   25.5600    1.7580 O.co2  25  ASP25      -0.2456
     17  N         18.5860   26.5800    3.4290 N.3    27  GLY27      -0.1210
     18  CA        18.3920   25.7390    4.5950 C.3    27  GLY27       0.1956
     19  C         18.6130   24.2700    4.2980 C.2    27  GLY27       0.2612
     20  O         19.2640   23.5600    5.0550 O.2    27  GLY27      -0.2717
     21  N         18.0680   23.8120    3.1850 N.am   28  ALA28      -0.1965
     22  CA        18.2080   22.4220    2.7960 C.3    28  ALA28       0.1728
     23  C         19.5900   22.1160    2.1970 C.2    28  ALA28       0.2616
     24  O         20.1320   22.9010    1.4170 O.2    28  ALA28      -0.2715
     25  CB        17.1130   22.0550    1.8160 C.3    28  ALA28       0.0334
     26  N         20.1430   20.9650    2.5770 N.am   29  ASP29      -0.1957
     27  CA        21.4530   20.5000    2.1200 C.3    29  ASP29       0.1840
     28  C         21.3650   19.9980    0.6790 C.2    29  ASP29       0.2622
     29  O         22.2010   20.3100   -0.1650 O.2    29  ASP29      -0.2715
     30  CB        21.9250   19.3190    2.9850 C.3    29  ASP29       0.1450
     31  CG        22.1950   19.6980    4.4330 C.2    29  ASP29       0.3671
     32  OD1       21.4150   20.4860    5.0170 O.co2  29  ASP29      -0.2456
     33  OD2       23.1870   19.1830    4.9910 O.co2  29  ASP29      -0.2456
     34  N         20.3360   19.1970    0.4320 N.am   30  ASP30      -0.1971
     35  CA        20.0970   18.5820   -0.8560 C.3    30  ASP30       0.1709
     36  C         18.9470   19.2510   -1.5700 C.2    30  ASP30       0.2293
     37  O         18.3030   20.1600   -1.0330 O.2    30  ASP30      -0.2864
     38  CB        19.7360   17.1200   -0.6450 C.3    30  ASP30       0.1436
     39  CG        20.5410   16.4900    0.4680 C.2    30  ASP30       0.3671
     40  OD1       21.7540   16.2850    0.2350 O.co2  30  ASP30      -0.2456
     41  OD2       19.9720   16.2190    1.5650 O.co2  30  ASP30      -0.2456
     42  N         15.4010   18.5070   -3.0340 N.3    32  VAL32      -0.1245
     43  CA        14.3240   17.5580   -3.0250 C.3    32  VAL32       0.1561
     44  C         13.3430   18.0500   -4.0680 C.2    32  VAL32       0.2260
     45  O         13.0280   19.2390   -4.1340 O.2    32  VAL32      -0.2867
     46  CB        13.6660   17.5040   -1.6370 C.3    32  VAL32       0.0252
     47  CG1       12.4040   16.6480   -1.6650 C.3    32  VAL32       0.0019
     48  CG2       14.6670   16.9390   -0.6370 C.3    32  VAL32       0.0019
     49  N         15.6230   11.5500    5.0090 N.3    47  ILE47      -0.1231
     50  CA        15.8440   12.9680    5.2710 C.3    47  ILE47       0.1692
     51  C         14.8140   13.3750    6.3100 C.2    47  ILE47       0.2593
     52  O         13.6300   13.0670    6.1730 O.2    47  ILE47      -0.2718
     53  CB        15.7040   13.8660    3.9810 C.3    47  ILE47       0.0266
     54  CG1       14.2540   13.9630    3.5240 C.3    47  ILE47       0.0019
     55  CG2       16.5300   13.2890    2.8310 C.3    47  ILE47       0.0020
     56  CD1       14.0650   14.9550    2.3900 C.3    47  ILE47       0.0001
     57  N         15.2630   14.0350    7.3700 N.am   48  GLY48      -0.1942
     58  CA        14.3290   14.4430    8.3990 C.3    48  GLY48       0.2014
     59  C         14.1200   15.9440    8.4120 C.2    48  GLY48       0.2639
     60  O         15.0450   16.7000    8.7100 O.2    48  GLY48      -0.2714
     61  N         12.9100   16.3890    8.0950 N.am   49  GLY49      -0.1939
     62  CA        12.6530   17.8150    8.0880 C.3    49  GLY49       0.2014
     63  C         12.1270   18.3510    9.4100 C.2    49  GLY49       0.2638
     64  O         12.4330   17.8330   10.4870 O.2    49  GLY49      -0.2714
     65  N         11.3240   19.4070    9.3070 N.am   50  ILE50      -0.1977
     66  CA        10.7180   20.0570   10.4590 C.3    50  ILE50       0.1596
     67  C          9.6780   19.1270   11.0630 C.2    50  ILE50       0.2287
     68  O          9.2960   19.2830   12.2140 O.2    50  ILE50      -0.2864
     69  CB        10.0230   21.3930   10.0460 C.3    50  ILE50       0.0276
     70  CG1        9.9300   22.3300   11.2460 C.3    50  ILE50       0.0022
     71  CG2        8.6250   21.1280    9.5180 C.3    50  ILE50       0.0022
     72  CD1       11.2840   22.7450   11.7960 C.3    50  ILE50       0.0001
     73  N         11.5700   12.3620    9.4410 N.3    53  PHE53      -0.1241
     74  CA        12.2490   11.6960    8.3330 C.3    53  PHE53       0.1605
     75  C         11.2600   11.0400    7.3830 C.2    53  PHE53       0.2264
     76  O         10.2170   10.5410    7.8090 O.2    53  PHE53      -0.2867
     77  CB        13.1770   10.5860    8.8370 C.3    53  PHE53       0.0534
     78  CG        14.2310   11.0490    9.7810 C.ar   53  PHE53      -0.0203
     79  CD1       13.9280   11.2970   11.1100 C.ar   53  PHE53      -0.0042
     80  CD2       15.5300   11.2640    9.3320 C.ar   53  PHE53      -0.0042
     81  CE1       14.9000   11.7560   11.9800 C.ar   53  PHE53      -0.0003
     82  CE2       16.5110   11.7230   10.1960 C.ar   53  PHE53      -0.0003
     83  CZ        16.1950   11.9720   11.5260 C.ar   53  PHE53      -0.0000
     84  N          6.3310   19.5010   -0.1140 N.3    81  PRO81      -0.2102
     85  CA         5.3680   20.5690   -0.4120 C.3    81  PRO81       0.1504
     86  C          5.6720   21.1320   -1.7920 C.2    81  PRO81       0.2575
     87  O          4.9410   20.8860   -2.7540 O.2    81  PRO81      -0.2718
     88  CB         5.6340   21.6000    0.6860 C.3    81  PRO81       0.0282
     89  CG         6.0960   20.7580    1.8470 C.3    81  PRO81       0.0208
     90  CD         6.9970   19.7250    1.1830 C.3    81  PRO81       0.0893
     91  N          6.7890   21.8590   -1.8690 N.am   82  VAL82      -0.1980
     92  CA         7.2500   22.5120   -3.0970 C.3    82  VAL82       0.1595
     93  C          8.5920   21.9530   -3.5410 C.2    82  VAL82       0.2287
     94  O          9.2500   21.2410   -2.7880 O.2    82  VAL82      -0.2864
     95  CB         7.4250   24.0190   -2.8750 C.3    82  VAL82       0.0276
     96  CG1        6.1400   24.6080   -2.3280 C.3    82  VAL82       0.0022
     97  CG2        8.5600   24.2660   -1.8940 C.3    82  VAL82       0.0022
     98  N         12.4380   21.9330   -4.1830 N.3    84  ILE84      -0.1245
     99  CA        13.4490   22.5950   -3.3970 C.3    84  ILE84       0.1561
    100  C         14.8550   22.3160   -3.9000 C.2    84  ILE84       0.2260
    101  O         15.2980   21.1670   -3.9620 O.2    84  ILE84      -0.2867
    102  CB        13.2900   22.1490   -1.9280 C.3    84  ILE84       0.0252
    103  CG1       11.8560   22.4400   -1.4760 C.3    84  ILE84       0.0019
    104  CG2       14.2910   22.8630   -1.0420 C.3    84  ILE84       0.0019
    105  CD1       11.4170   21.6910   -0.2660 C.3    84  ILE84       0.0001
@<TRIPOS>BOND
     1     1     2    1
     2     2     3    1
     3     2     5    1
     4    98    99    1
     5    45    44    2
     6    44    43    1
     7   101   100    2
     8     3     4    2
     9   100    99    1
    10    93    92    1
    11    93    94    2
    12    99   102    1
    13    92    95    1
    14    92    91    1
    15    42    43    1
    16    43    46    1
    17     5     6    1
    18    95    96    1
    19    95    97    1
    20    87    86    2
    21     7     6    1
    22   102   103    1
    23   102   104    1
    24    91    86   am
    25     6     8    1
    26    86    85    1
    27     9    10    1
    28    47    46    1
    29    46    48    1
    30    36    37    2
    31    36    35    1
    32   103   105    1
    33    35    38    1
    34    35    34    1
    35    38    39    1
    36    85    84    1
    37    85    88    1
    38    10    13    1
    39    10    11    1
    40    29    28    2
    41    84    90    1
    42    13    14    1
    43    12    11    2
    44    40    39   ar
    45    34    28   am
    46    39    41   ar
    47    28    27    1
    48    88    89    1
    49    90    89    1
    50    24    23    2
    51    14    16   ar
    52    14    15   ar
    53    25    22    1
    54    27    26    1
    55    27    30    1
    56    23    26   am
    57    23    22    1
    58    56    54    1
    59    22    21    1
    60    55    53    1
    61    30    31    1
    62    21    19   am
    63    17    18    1
    64    54    53    1
    65    53    50    1
    66    19    18    1
    67    19    20    2
    68    31    33   ar
    69    31    32   ar
    70    49    50    1
    71    50    51    1
    72    52    51    2
    73    51    57   am
    74    57    58    1
    75    75    76    2
    76    75    74    1
    77    62    61    1
    78    62    63    1
    79    61    59   am
    80    74    77    1
    81    74    73    1
    82    58    59    1
    83    59    60    2
    84    77    78    1
    85    65    63   am
    86    65    66    1
    87    80    78   ar
    88    80    82   ar
    89    63    64    2
    90    71    69    1
    91    78    79   ar
    92    69    66    1
    93    69    70    1
    94    82    83   ar
    95    66    67    1
    96    67    68    2
    97    79    81   ar
    98    70    72    1
    99    83    81   ar
