@<TRIPOS>MOLECULE
tmp/1yteA00.pdb
 125 120 0 0 0
SMALL
GASTEIGER

@<TRIPOS>ATOM
      1  N         89.8170   66.0650   21.8020 N.3   138  PHE138     -0.1227
      2  CA        89.8500   67.0140   22.9070 C.3   138  PHE138      0.1736
      3  C         90.0820   66.2930   24.2200 C.2   138  PHE138      0.2596
      4  O         89.8040   66.8470   25.2800 O.2   138  PHE138     -0.2718
      5  CB        88.5080   67.7410   23.0460 C.3   138  PHE138      0.0547
      6  CG        88.1980   68.7140   21.9470 C.ar  138  PHE138     -0.0202
      7  CD1       89.1880   69.1860   21.0980 C.ar  138  PHE138     -0.0042
      8  CD2       86.9100   69.2230   21.8210 C.ar  138  PHE138     -0.0042
      9  CE1       88.9020   70.1550   20.1470 C.ar  138  PHE138     -0.0003
     10  CE2       86.6100   70.1910   20.8750 C.ar  138  PHE138     -0.0003
     11  CZ        87.6080   70.6610   20.0370 C.ar  138  PHE138     -0.0000
     12  N         90.5990   65.0730   24.1770 N.am  139  GLY139     -0.1957
     13  CA        90.7430   64.3370   25.4200 C.3   139  GLY139      0.1869
     14  C         92.0140   64.2510   26.2340 C.2   139  GLY139      0.2309
     15  O         92.0450   63.4670   27.1770 O.2   139  GLY139     -0.2863
     16  N         93.2140   66.1160   28.5620 N.3   141  ARG141     -0.1231
     17  CA        92.9680   66.4720   29.9560 C.3   141  ARG141      0.1694
     18  C         92.5880   65.2730   30.8190 C.2   141  ARG141      0.2591
     19  O         92.6500   65.3360   32.0530 O.2   141  ARG141     -0.2718
     20  CB        91.8410   67.4920   30.0430 C.3   141  ARG141      0.0321
     21  CG        90.4840   66.9470   29.5990 C.3   141  ARG141      0.0489
     22  CD        89.4230   68.0100   29.7350 C.3   141  ARG141      0.2205
     23  NE        89.9160   69.2480   29.1460 N.pl3 141  ARG141     -0.0865
     24  CZ        89.4510   70.4590   29.4330 C.cat 141  ARG141      0.5346
     25  NH1       88.4630   70.6030   30.3090 N.pl3 141  ARG141      0.1354
     26  NH2       89.9980   71.5260   28.8570 N.pl3 141  ARG141      0.1354
     27  N         92.1840   64.1860   30.1740 N.am  142  ARG142     -0.1980
     28  CA        91.7710   62.9950   30.8990 C.3   142  ARG142      0.1597
     29  C         92.9380   62.0970   31.2920 C.2   142  ARG142      0.2287
     30  O         92.7960   61.2380   32.1640 O.2   142  ARG142     -0.2864
     31  CB        90.7770   62.1950   30.0580 C.3   142  ARG142      0.0334
     32  CG        90.0650   61.1130   30.8270 C.3   142  ARG142      0.0492
     33  CD        89.1710   61.7360   31.8750 C.3   142  ARG142      0.2205
     34  NE        88.1720   62.6100   31.2700 N.pl3 142  ARG142     -0.0865
     35  CZ        87.7970   63.7690   31.7960 C.cat 142  ARG142      0.5346
     36  NH1       88.3430   64.1770   32.9310 N.pl3 142  ARG142      0.1354
     37  NH2       86.8910   64.5250   31.1910 N.pl3 142  ARG142      0.1354
     38  N         77.7470   71.9600   24.6140 N.3   237  ASP237     -0.1225
     39  CA        78.4280   71.0440   25.5230 C.3   237  ASP237      0.1805
     40  C         77.4460   70.7080   26.6410 C.2   237  ASP237      0.2598
     41  O         77.8370   70.2350   27.6990 O.2   237  ASP237     -0.2718
     42  CB        79.6730   71.7050   26.1310 C.3   237  ASP237      0.1424
     43  CG        80.8890   71.6130   25.2320 C.2   237  ASP237      0.3668
     44  OD1       80.8130   72.0510   24.0670 O.co2 237  ASP237     -0.2456
     45  OD2       81.9290   71.1040   25.7000 O.co2 237  ASP237     -0.2456
     46  N         76.1700   70.9650   26.3820 N.am  238  THR238     -0.1939
     47  CA        75.0830   70.7420   27.3290 C.3   238  THR238      0.2013
     48  C         75.3570   69.7500   28.4680 C.2   238  THR238      0.2484
     49  O         75.6330   68.5730   28.2300 O.2   238  THR238     -0.2729
     50  CB        73.8130   70.2690   26.5870 C.3   238  THR238      0.1807
     51  OG1       73.5680   71.1150   25.4550 O.3   238  THR238     -0.2208
     52  CG2       72.6130   70.3200   27.5120 C.3   238  THR238      0.0379
     53  N         75.2720   70.2180   29.7250 N.am  239  PRO239     -0.2715
     54  CA        75.4990   69.3790   30.9120 C.3   239  PRO239      0.1536
     55  C         74.6240   68.1250   30.8130 C.2   239  PRO239      0.2599
     56  O         73.4580   68.2000   30.4160 O.2   239  PRO239     -0.2715
     57  CB        75.0480   70.2770   32.0640 C.3   239  PRO239      0.0310
     58  CG        75.3070   71.6490   31.5510 C.3   239  PRO239      0.0237
     59  CD        74.8630   71.5780   30.1100 C.3   239  PRO239      0.0939
     60  N         75.1670   66.9750   31.1830 N.am  240  SER240     -0.1936
     61  CA        74.3950   65.7490   31.0970 C.3   240  SER240      0.2055
     62  C         73.0470   65.8450   31.8160 C.2   240  SER240      0.2643
     63  O         72.0550   65.2840   31.3450 O.2   240  SER240     -0.2714
     64  CB        75.1840   64.5840   31.6740 C.3   240  SER240      0.2130
     65  OG        75.2730   64.7120   33.0740 O.3   240  SER240     -0.2179
     66  N         72.9980   66.5450   32.9460 N.am  241  SER241     -0.1949
     67  CA        71.7440   66.6640   33.6820 C.3   241  SER241      0.1924
     68  C         70.7090   67.4490   32.8870 C.2   241  SER241      0.2314
     69  O         69.5150   67.3900   33.1750 O.2   241  SER241     -0.2863
     70  CB        71.9720   67.3600   35.0190 C.3   241  SER241      0.2116
     71  OG        72.3830   68.6930   34.8070 O.3   241  SER241     -0.2180
     72  N         70.7600   67.2070   29.5190 N.3   243  ARG243     -0.1245
     73  CA        70.6690   66.4380   28.2880 C.3   243  ARG243      0.1563
     74  C         69.5860   65.3560   28.2650 C.2   243  ARG243      0.2260
     75  O         69.8880   64.1820   28.0380 O.2   243  ARG243     -0.2867
     76  CB        72.0470   65.8260   27.9980 C.3   243  ARG243      0.0307
     77  CG        72.3810   65.7040   26.5270 C.3   243  ARG243      0.0489
     78  CD        73.8190   65.2490   26.2880 C.3   243  ARG243      0.2205
     79  NE        74.8080   66.2680   26.6320 N.pl3 243  ARG243     -0.0865
     80  CZ        76.0630   66.2650   26.1840 C.cat 243  ARG243      0.5346
     81  NH1       76.4750   65.2980   25.3710 N.pl3 243  ARG243      0.1354
     82  NH2       76.9130   67.2190   26.5530 N.pl3 243  ARG243      0.1354
     83  N         79.7950   68.3810   21.7380 N.3   270  SER270     -0.1202
     84  CA        80.9070   67.7740   22.4560 C.3   270  SER270      0.2020
     85  C         80.5140   67.4020   23.8810 C.2   270  SER270      0.2619
     86  O         79.5300   67.9090   24.4210 O.2   270  SER270     -0.2717
     87  CB        82.1000   68.7250   22.4820 C.3   270  SER270      0.2103
     88  OG        81.7050   69.9890   22.9770 O.3   270  SER270     -0.2182
     89  N         81.2880   66.5040   24.4780 N.am  271  GLY271     -0.1942
     90  CA        81.0150   66.0830   25.8350 C.3   271  GLY271      0.2014
     91  C         80.4350   64.6880   25.9220 C.2   271  GLY271      0.2639
     92  O         79.2510   64.4790   25.6550 O.2   271  GLY271     -0.2714
     93  N         81.2800   63.7340   26.3030 N.am  272  GLY272     -0.1939
     94  CA        80.8530   62.3530   26.4400 C.3   272  GLY272      0.2014
     95  C         80.2880   61.7530   25.1700 C.2   272  GLY272      0.2638
     96  O         79.1450   61.2950   25.1600 O.2   272  GLY272     -0.2714
     97  N         81.0850   61.7360   24.1060 N.am  273  LEU273     -0.1977
     98  CA        80.6280   61.1940   22.8370 C.3   273  LEU273      0.1596
     99  C         81.3770   59.9100   22.4390 C.2   273  LEU273      0.2287
    100  O         82.5150   59.7030   22.8560 O.2   273  LEU273     -0.2864
    101  CB        80.7630   62.2680   21.7480 C.3   273  LEU273      0.0297
    102  CG        80.1770   63.6600   22.0630 C.3   273  LEU273      0.0022
    103  CD1       80.2870   64.5490   20.8320 C.3   273  LEU273      0.0001
    104  CD2       78.7280   63.5540   22.4920 C.3   273  LEU273      0.0001
    105  N         83.3140   67.2050   19.0280 N.3   290  GLY290     -0.1225
    106  CA        84.4680   67.2760   19.9020 C.3   290  GLY290      0.1811
    107  C         84.4610   65.9930   20.7190 C.2   290  GLY290      0.2280
    108  O         83.5820   65.7680   21.5560 O.2   290  GLY290     -0.2866
    109  N         86.6140   63.3980   23.2880 N.3   292  GLY292     -0.1210
    110  CA        87.7650   63.2270   24.1580 C.3   292  GLY292      0.1956
    111  C         87.8740   61.8770   24.8560 C.2   292  GLY292      0.2613
    112  O         88.2240   60.8630   24.2420 O.2   292  GLY292     -0.2717
    113  N         87.5570   61.8810   26.1470 N.am  293  THR293     -0.1938
    114  CA        87.6220   60.7100   27.0130 C.3   293  THR293      0.2028
    115  C         87.5320   59.3450   26.3460 C.2   293  THR293      0.2642
    116  O         88.4180   58.5120   26.5100 O.2   293  THR293     -0.2714
    117  CB        86.5400   60.7760   28.0940 C.3   293  THR293      0.1808
    118  OG1       86.5730   62.0660   28.7210 O.3   293  THR293     -0.2208
    119  CG2       86.7910   59.7150   29.1500 C.3   293  THR293      0.0379
    120  N         86.4640   59.1120   25.6000 N.am  294  SER294     -0.1949
    121  CA        86.2780   57.8330   24.9350 C.3   294  SER294      0.1924
    122  C         87.4840   57.4310   24.1010 C.2   294  SER294      0.2314
    123  O         87.7600   56.2430   23.9320 O.2   294  SER294     -0.2863
    124  CB        85.0440   57.8900   24.0470 C.3   294  SER294      0.2116
    125  OG        85.0860   59.0560   23.2510 O.3   294  SER294     -0.2180
@<TRIPOS>BOND
     1   105   106    1
     2   106   107    1
     3    11     9   ar
     4    11    10   ar
     5     9     7   ar
     6   107   108    2
     7   103   102    1
     8    10     8   ar
     9     7     6   ar
    10    83    84    1
    11   101   102    1
    12   101    98    1
    13     1     2    1
    14     8     6   ar
    15     6     5    1
    16   102   104    1
    17    99    98    1
    18    99   100    2
    19    84    87    1
    20    84    85    1
    21    87    88    1
    22    98    97    1
    23     2     5    1
    24     2     3    1
    25   125   124    1
    26   109   110    1
    27    85    86    2
    28    85    89   am
    29   123   122    2
    30   124   121    1
    31    44    43   ar
    32   122   121    1
    33    97    95   am
    34   110   111    1
    35    12     3   am
    36    12    13    1
    37     3     4    2
    38   112   111    2
    39    89    90    1
    40    38    39    1
    41   111   113   am
    42   121   120    1
    43    96    95    2
    44    95    94    1
    45    43    45   ar
    46    43    42    1
    47    81    80    1
    48    13    14    1
    49    51    50    1
    50    39    42    1
    51    39    40    1
    52   120   115   am
    53    92    91    2
    54    90    91    1
    55    91    93   am
    56   113   114    1
    57    80    82    1
    58    80    79    2
    59    14    15    2
    60    78    77    1
    61    78    79    1
    62    93    94    1
    63   115   116    2
    64   115   114    1
    65    46    40   am
    66    46    47    1
    67    77    76    1
    68    50    47    1
    69    50    52    1
    70    40    41    2
    71   114   117    1
    72    47    48    1
    73    76    73    1
    74    75    74    2
    75   117   118    1
    76   117   119    1
    77    49    48    2
    78    74    73    1
    79    73    72    1
    80    48    53   am
    81    16    17    1
    82    26    24    1
    83    23    24    2
    84    23    22    1
    85    24    25    1
    86    21    22    1
    87    21    20    1
    88    53    59    1
    89    53    54    1
    90    17    20    1
    91    17    18    1
    92    31    32    1
    93    31    28    1
    94    59    58    1
    95    27    18   am
    96    27    28    1
    97    56    55    2
    98    55    54    1
    99    55    60   am
   100    18    19    2
   101    32    33    1
   102    28    29    1
   103    54    57    1
   104    61    60    1
   105    61    64    1
   106    61    62    1
   107    37    35    1
   108    34    35    2
   109    34    33    1
   110    29    30    2
   111    63    62    2
   112    58    57    1
   113    64    65    1
   114    35    36    1
   115    62    66   am
   116    68    69    2
   117    68    67    1
   118    66    67    1
   119    67    70    1
   120    71    70    1
