@<TRIPOS>MOLECULE
tmp/1ytgB00.pdb
 91 86 0 0 0
SMALL
GASTEIGER

@<TRIPOS>ATOM
      1  N          9.8340    3.8530   20.1890 N.3    25  ASP25      -0.1239
      2  CA         8.6570    3.0520   19.8970 C.3    25  ASP25       0.1674
      3  C          8.1200    2.1560   20.9870 C.2    25  ASP25       0.2266
      4  O          8.5590    1.0100   21.0860 O.2    25  ASP25      -0.2867
      5  CB         8.9680    2.2170   18.6470 C.3    25  ASP25       0.1410
      6  CG         7.7960    1.4970   18.0120 C.2    25  ASP25       0.3668
      7  OD1        6.6950    1.4510   18.5390 O.co2  25  ASP25      -0.2456
      8  OD2        7.9560    0.9510   16.9470 O.co2  25  ASP25      -0.2456
      9  N          5.5260    0.3790   20.9540 N.3    27  GLY27      -0.1210
     10  CA         4.8960   -0.7680   20.3630 C.3    27  GLY27       0.1956
     11  C          5.8700   -1.8540   19.9000 C.2    27  GLY27       0.2612
     12  O          5.4210   -2.9050   19.4250 O.2    27  GLY27      -0.2717
     13  N          7.1690   -1.6330   20.0510 N.am   28  ALA28      -0.1965
     14  CA         8.1630   -2.5800   19.6210 C.3    28  ALA28       0.1728
     15  C          8.8630   -3.1930   20.8140 C.2    28  ALA28       0.2616
     16  O          9.3520   -2.5250   21.7370 O.2    28  ALA28      -0.2715
     17  CB         9.1380   -1.8670   18.7700 C.3    28  ALA28       0.0334
     18  N          8.8430   -4.5070   20.8260 N.am   29  ASP29      -0.1957
     19  CA         9.6120   -5.2510   21.8060 C.3    29  ASP29       0.1840
     20  C         11.1310   -5.0590   21.7920 C.2    29  ASP29       0.2622
     21  O         11.7400   -5.0500   22.8610 O.2    29  ASP29      -0.2715
     22  CB         9.3720   -6.7430   21.6540 C.3    29  ASP29       0.1450
     23  CG         7.9260   -7.1270   21.8100 C.2    29  ASP29       0.3671
     24  OD1        7.2020   -6.5440   22.6150 O.co2  29  ASP29      -0.2456
     25  OD2        7.5450   -8.0400   21.1130 O.co2  29  ASP29      -0.2456
     26  N         11.7100   -4.9220   20.6020 N.am   30  ASP30      -0.1971
     27  CA        13.1450   -4.8670   20.3580 C.3    30  ASP30       0.1709
     28  C         13.5790   -3.6270   19.6250 C.2    30  ASP30       0.2293
     29  O         12.7540   -2.9620   19.0110 O.2    30  ASP30      -0.2864
     30  CB        13.5800   -6.0050   19.5010 C.3    30  ASP30       0.1436
     31  CG        13.4480   -7.3010   20.2390 C.2    30  ASP30       0.3671
     32  OD1       14.1400   -7.4420   21.2570 O.co2  30  ASP30      -0.2456
     33  OD2       12.6500   -8.1310   19.7850 O.co2  30  ASP30      -0.2456
     34  N         15.5090   -2.2230   16.4640 N.3    32  VAL32      -0.1245
     35  CA        16.0100   -2.7010   15.2050 C.3    32  VAL32       0.1561
     36  C         16.5390   -1.4660   14.5180 C.2    32  VAL32       0.2260
     37  O         15.8860   -0.4220   14.5100 O.2    32  VAL32      -0.2867
     38  CB        14.9360   -3.4400   14.2950 C.3    32  VAL32       0.0252
     39  CG1       14.0410   -4.2210   15.2050 C.3    32  VAL32       0.0019
     40  CG2       14.0380   -2.5730   13.5430 C.3    32  VAL32       0.0019
     41  N         13.8680  -13.8770   13.3770 N.3    46  MET46      -0.1230
     42  CA        12.7970  -13.4070   12.5190 C.3    46  MET46       0.1702
     43  C         12.0160  -12.4540   13.3760 C.2    46  MET46       0.2592
     44  O         11.7720  -12.7710   14.5210 O.2    46  MET46      -0.2718
     45  CB        11.8330  -14.4910   12.1290 C.3    46  MET46       0.0401
     46  CG        12.3730  -15.5910   11.2880 C.3    46  MET46       0.0596
     47  SD        12.7470  -15.0140    9.6430 S.3    46  MET46      -0.1393
     48  CE        11.0790  -15.1040    9.0650 C.3    46  MET46       0.0692
     49  N         11.5840  -11.2740   12.9610 N.am   47  ILE47      -0.1966
     50  CA        10.7040  -10.4480   13.7840 C.3    47  ILE47       0.1727
     51  C          9.5500   -9.9870   12.9060 C.2    47  ILE47       0.2617
     52  O          9.6930   -9.8330   11.6900 O.2    47  ILE47      -0.2715
     53  CB        11.4460   -9.2110   14.3540 C.3    47  ILE47       0.0290
     54  CG1       12.1520   -8.4730   13.2300 C.3    47  ILE47       0.0022
     55  CG2       12.3730   -9.6650   15.4900 C.3    47  ILE47       0.0023
     56  CD1       12.4890   -7.0560   13.6800 C.3    47  ILE47       0.0001
     57  N          8.3870   -9.7630   13.4820 N.am   48  GLY48      -0.1940
     58  CA         7.2830   -9.3960   12.6000 C.3    48  GLY48       0.2014
     59  C          6.5330   -8.1390   12.9470 C.2    48  GLY48       0.2639
     60  O          6.8250   -7.5200   13.9940 O.2    48  GLY48      -0.2714
     61  N          5.5780   -7.7960   12.0960 N.am   49  GLY49      -0.1939
     62  CA         4.7130   -6.6600   12.3240 C.3    49  GLY49       0.2014
     63  C          3.5880   -6.6400   11.2970 C.2    49  GLY49       0.2638
     64  O          3.1330   -7.6610   10.8020 O.2    49  GLY49      -0.2714
     65  N          3.1110   -5.4580   10.9560 N.am   50  ILE50      -0.1977
     66  CA         2.1120   -5.2480    9.9200 C.3    50  ILE50       0.1596
     67  C          2.8020   -5.7860    8.6600 C.2    50  ILE50       0.2287
     68  O          3.9160   -5.3610    8.3060 O.2    50  ILE50      -0.2864
     69  CB         1.8290   -3.7070    9.7840 C.3    50  ILE50       0.0276
     70  CG1        1.2750   -3.1400   11.0520 C.3    50  ILE50       0.0022
     71  CG2        0.8960   -3.4440    8.6140 C.3    50  ILE50       0.0022
     72  CD1        0.0090   -3.7720   11.5660 C.3    50  ILE50       0.0001
     73  N          7.0640  -10.9210    8.4630 N.3    53  PHE53      -0.1241
     74  CA         8.2940  -11.0700    9.2290 C.3    53  PHE53       0.1605
     75  C          9.4800  -10.6570    8.3860 C.2    53  PHE53       0.2264
     76  O          9.3890  -10.7860    7.1690 O.2    53  PHE53      -0.2867
     77  CB         8.4490  -12.5160    9.6420 C.3    53  PHE53       0.0534
     78  CG         7.6300  -12.8610   10.8610 C.ar   53  PHE53      -0.0203
     79  CD1        6.2710  -13.0780   10.7630 C.ar   53  PHE53      -0.0042
     80  CD2        8.2500  -12.9590   12.0850 C.ar   53  PHE53      -0.0042
     81  CE1        5.5320  -13.3990   11.8880 C.ar   53  PHE53      -0.0003
     82  CE2        7.5000  -13.2750   13.2090 C.ar   53  PHE53      -0.0003
     83  CZ         6.1370  -13.4990   13.1130 C.ar   53  PHE53      -0.0000
     84  N         14.5110    1.9510   15.0540 N.3    84  ILE84      -0.1245
     85  CA        13.4410    1.7550   16.0120 C.3    84  ILE84       0.1561
     86  C         14.0830    1.5470   17.3640 C.2    84  ILE84       0.2260
     87  O         14.8760    0.6120   17.4430 O.2    84  ILE84      -0.2867
     88  CB        12.6070    0.4820   15.6280 C.3    84  ILE84       0.0252
     89  CG1       11.9570    0.6900   14.2820 C.3    84  ILE84       0.0019
     90  CG2       11.5910    0.1300   16.7190 C.3    84  ILE84       0.0019
     91  CD1       10.8710    1.7430   14.3130 C.3    84  ILE84       0.0001
@<TRIPOS>BOND
     1    76    75    2
     2    68    67    2
     3    75    74    1
     4    73    74    1
     5    71    69    1
     6    67    66    1
     7    48    47    1
     8    74    77    1
     9    77    78    1
    10    47    46    1
    11    69    66    1
    12    69    70    1
    13    66    65    1
    14    79    78   ar
    15    79    81   ar
    16    64    63    2
    17    78    80   ar
    18    65    63   am
    19    70    72    1
    20    46    45    1
    21    63    62    1
    22    52    51    2
    23    81    83   ar
    24    80    82   ar
    25    61    62    1
    26    61    59   am
    27    45    42    1
    28    42    43    1
    29    42    41    1
    30    58    59    1
    31    58    57    1
    32    51    57   am
    33    51    50    1
    34    59    60    2
    35    49    43   am
    36    49    50    1
    37    83    82   ar
    38    54    56    1
    39    54    53    1
    40    43    44    2
    41    40    38    1
    42    50    53    1
    43    89    91    1
    44    89    88    1
    45    38    39    1
    46    38    35    1
    47    53    55    1
    48    37    36    2
    49    36    35    1
    50    84    85    1
    51    35    34    1
    52    88    85    1
    53    88    90    1
    54    85    86    1
    55     8     6   ar
    56    86    87    2
    57     6     7   ar
    58     6     5    1
    59     5     2    1
    60    17    14    1
    61    29    28    2
    62    12    11    2
    63    30    31    1
    64    30    27    1
    65    14    13    1
    66    14    15    1
    67    28    27    1
    68    33    31   ar
    69     2     1    1
    70     2     3    1
    71    11    13   am
    72    11    10    1
    73    31    32   ar
    74    27    26    1
    75    10     9    1
    76    26    20   am
    77    15    18   am
    78    15    16    2
    79    18    19    1
    80     3     4    2
    81    25    23   ar
    82    22    19    1
    83    22    23    1
    84    20    19    1
    85    20    21    2
    86    23    24   ar
