@<TRIPOS>MOLECULE
tmp/1ytgA00.pdb
 84 77 0 0 0
SMALL
GASTEIGER

@<TRIPOS>ATOM
      1  N          4.4810   -5.1220   27.8530 N.3     8  ARG8       -0.1245
      2  CA         3.9070   -4.4750   26.6870 C.3     8  ARG8        0.1563
      3  C          2.8420   -3.4990   27.1670 C.2     8  ARG8        0.2260
      4  O          2.0430   -3.9010   28.0180 O.2     8  ARG8       -0.2867
      5  CB         3.2340   -5.4630   25.7840 C.3     8  ARG8        0.0307
      6  CG         4.2390   -6.2150   24.9460 C.3     8  ARG8        0.0489
      7  CD         3.5080   -6.9090   23.8200 C.3     8  ARG8        0.2205
      8  NE         4.3520   -7.9580   23.2600 N.pl3   8  ARG8       -0.0865
      9  CZ         4.1960   -8.4640   22.0340 C.cat   8  ARG8        0.5346
     10  NH1        3.3340   -7.9460   21.1450 N.pl3   8  ARG8        0.1354
     11  NH2        4.9610   -9.4850   21.6590 N.pl3   8  ARG8        0.1354
     12  N         -2.5160   -2.2930   22.1680 N.3    23  LEU23      -0.1245
     13  CA        -1.1670   -1.8330   22.4510 C.3    23  LEU23       0.1561
     14  C         -1.0880   -0.3640   22.1240 C.2    23  LEU23       0.2260
     15  O         -1.4860    0.0700   21.0350 O.2    23  LEU23      -0.2867
     16  CB        -0.0920   -2.4900   21.5750 C.3    23  LEU23       0.0270
     17  CG         1.1250   -3.3050   22.0410 C.3    23  LEU23       0.0019
     18  CD1        2.1410   -3.2820   20.9230 C.3    23  LEU23       0.0001
     19  CD2        1.8140   -2.7070   23.2140 C.3    23  LEU23       0.0001
     20  N          1.1430    2.3240   20.9090 N.3    25  ASP25      -0.1239
     21  CA         2.2970    2.1820   20.0570 C.3    25  ASP25       0.1674
     22  C          2.6490    3.5540   19.5140 C.2    25  ASP25       0.2266
     23  O          2.0050    4.0000   18.5500 O.2    25  ASP25      -0.2867
     24  CB         1.8260    1.2110   19.0160 C.3    25  ASP25       0.1410
     25  CG         2.7220    0.8370   17.8600 C.2    25  ASP25       0.3668
     26  OD1        3.8450    1.3010   17.7160 O.co2  25  ASP25      -0.2456
     27  OD2        2.2520    0.0220   17.0860 O.co2  25  ASP25      -0.2456
     28  N          5.0720    4.2760   17.8240 N.3    27  GLY27      -0.1210
     29  CA         5.6570    3.9990   16.5520 C.3    27  GLY27       0.1956
     30  C          4.6440    3.9810   15.4460 C.2    27  GLY27       0.2611
     31  O          5.0390    4.0050   14.2730 O.2    27  GLY27      -0.2717
     32  N          3.3550    3.8740   15.7530 N.am   28  ALA28      -0.1979
     33  CA         2.3840    3.8600   14.6730 C.3    28  ALA28       0.1597
     34  C          1.7250    5.2160   14.4990 C.2    28  ALA28       0.2287
     35  O          1.4100    5.9010   15.4710 O.2    28  ALA28      -0.2864
     36  CB         1.3600    2.8380   15.0100 C.3    28  ALA28       0.0319
     37  N         -4.9470    0.6450   14.0470 N.3    32  VAL32      -0.1245
     38  CA        -5.4290   -0.3990   13.1620 C.3    32  VAL32       0.1561
     39  C         -5.7540   -1.5460   14.1030 C.2    32  VAL32       0.2260
     40  O         -5.1140   -1.7940   15.1230 O.2    32  VAL32      -0.2867
     41  CB        -4.3530   -0.6580   11.9550 C.3    32  VAL32       0.0252
     42  CG1       -2.9830   -0.2060   12.3300 C.3    32  VAL32       0.0019
     43  CG2       -4.4030   -2.1020   11.4800 C.3    32  VAL32       0.0019
     44  N          4.1120   -1.7320    7.2140 N.3    49  GLY49      -0.1210
     45  CA         4.7730   -1.8150    8.5240 C.3    49  GLY49       0.1956
     46  C          6.0760   -2.6300    8.3820 C.2    49  GLY49       0.2611
     47  O          6.5420   -2.7960    7.2400 O.2    49  GLY49      -0.2717
     48  N          6.7220   -3.1440    9.4550 N.am   50  ILE50      -0.1979
     49  CA         7.9090   -4.0350    9.4260 C.3    50  ILE50       0.1595
     50  C          7.4320   -5.3780    8.8650 C.2    50  ILE50       0.2287
     51  O          7.0540   -6.3320    9.5600 O.2    50  ILE50      -0.2864
     52  CB         8.4720   -4.1400   10.9000 C.3    50  ILE50       0.0276
     53  CG1        9.4690   -3.0090   11.0300 C.3    50  ILE50       0.0022
     54  CG2        9.1940   -5.4380   11.2680 C.3    50  ILE50       0.0022
     55  CD1       10.8310   -3.2090   10.2990 C.3    50  ILE50       0.0001
     56  N         -3.6050   -7.2900   11.5920 N.3    80  THR80      -0.1204
     57  CA        -2.5270   -6.7900   12.4050 C.3    80  THR80       0.1979
     58  C         -2.2910   -7.8910   13.4190 C.2    80  THR80       0.2460
     59  O         -3.2200   -8.5600   13.8730 O.2    80  THR80      -0.2732
     60  CB        -2.9690   -5.4420   13.0740 C.3    80  THR80       0.1783
     61  OG1       -1.8700   -4.9980   13.8450 O.3    80  THR80      -0.2211
     62  CG2       -4.2090   -5.5590   13.9630 C.3    80  THR80       0.0376
     63  N         -1.0300   -8.1520   13.7430 N.am   81  PRO81      -0.2717
     64  CA        -0.6470   -9.0420   14.8260 C.3    81  PRO81       0.1535
     65  C         -1.3200   -8.7640   16.1540 C.2    81  PRO81       0.2598
     66  O         -1.5720   -9.7040   16.9130 O.2    81  PRO81      -0.2715
     67  CB         0.8670   -8.9020   14.8910 C.3    81  PRO81       0.0310
     68  CG         1.2220   -7.6790   14.0400 C.3    81  PRO81       0.0237
     69  CD         0.1470   -7.7040   12.9740 C.3    81  PRO81       0.0939
     70  N         -1.6140   -7.4880   16.4730 N.am   82  VAL82      -0.1978
     71  CA        -2.1850   -7.0520   17.7530 C.3    82  VAL82       0.1596
     72  C         -2.8870   -5.7330   17.4900 C.2    82  VAL82       0.2287
     73  O         -2.4440   -4.9660   16.6320 O.2    82  VAL82      -0.2864
     74  CB        -1.0690   -6.8420   18.8140 C.3    82  VAL82       0.0276
     75  CG1        0.0860   -6.0100   18.2470 C.3    82  VAL82       0.0022
     76  CG2       -1.6710   -6.1390   20.0370 C.3    82  VAL82       0.0022
     77  N         -3.5540   -1.9700   17.8390 N.3    84  ILE84      -0.1245
     78  CA        -2.6790   -0.9230   18.3040 C.3    84  ILE84       0.1561
     79  C         -3.4500    0.3480   18.1640 C.2    84  ILE84       0.2260
     80  O         -4.2570    0.5140   17.2370 O.2    84  ILE84      -0.2867
     81  CB        -1.4190   -0.8400   17.4540 C.3    84  ILE84       0.0252
     82  CG1       -1.7510   -0.8180   15.9860 C.3    84  ILE84       0.0019
     83  CG2       -0.5660   -2.0390   17.7940 C.3    84  ILE84       0.0019
     84  CD1       -0.6200   -0.4020   15.0580 C.3    84  ILE84       0.0001
@<TRIPOS>BOND
     1    44    45    1
     2    47    46    2
     3    46    45    1
     4    46    48   am
     5    50    49    1
     6    50    51    2
     7    49    48    1
     8    49    52    1
     9    55    53    1
    10    52    53    1
    11    52    54    1
    12    43    41    1
    13    56    57    1
    14    41    42    1
    15    41    38    1
    16    57    60    1
    17    57    58    1
    18    69    63    1
    19    69    68    1
    20    60    61    1
    21    60    62    1
    22    38    37    1
    23    38    39    1
    24    58    63   am
    25    58    59    2
    26    63    64    1
    27    68    67    1
    28    39    40    2
    29    31    30    2
    30    34    33    1
    31    34    35    2
    32    33    36    1
    33    33    32    1
    34    64    67    1
    35    64    65    1
    36    84    82    1
    37    30    32   am
    38    30    29    1
    39    82    81    1
    40    65    70   am
    41    65    66    2
    42    70    71    1
    43    29    28    1
    44    73    72    2
    45    27    25   ar
    46    80    79    2
    47    81    83    1
    48    81    78    1
    49    72    71    1
    50    26    25   ar
    51    71    74    1
    52    77    78    1
    53    25    24    1
    54    79    78    1
    55    75    74    1
    56    23    22    2
    57    74    76    1
    58    24    21    1
    59    22    21    1
    60    21    20    1
    61    18    17    1
    62    15    14    2
    63    10     9    1
    64    16    17    1
    65    16    13    1
    66    11     9    1
    67     9     8    2
    68    17    19    1
    69    14    13    1
    70    12    13    1
    71     8     7    1
    72     7     6    1
    73     6     5    1
    74     5     2    1
    75     2     3    1
    76     2     1    1
    77     3     4    2
