@<TRIPOS>MOLECULE
tmp/1ythA00.pdb
 100 95 0 0 0
SMALL
GASTEIGER

@<TRIPOS>ATOM
      1  N          0.9430    2.4350   21.3630 N.3    25  ASP25      -0.1239
      2  CA         2.0970    2.2950   20.5260 C.3    25  ASP25       0.1674
      3  C          2.4990    3.6320   19.9520 C.2    25  ASP25       0.2266
      4  O          1.9420    4.0750   18.9420 O.2    25  ASP25      -0.2867
      5  CB         1.7320    1.2990   19.4340 C.3    25  ASP25       0.1410
      6  CG         2.7600    0.9310   18.4260 C.2    25  ASP25       0.3668
      7  OD1        3.8210    1.5120   18.3520 O.co2  25  ASP25      -0.2456
      8  OD2        2.4540    0.0250   17.6810 O.co2  25  ASP25      -0.2456
      9  N          5.0330    4.1010   18.2350 N.3    27  GLY27      -0.1210
     10  CA         5.6680    3.8820   16.9400 C.3    27  GLY27       0.1956
     11  C          4.7270    3.7150   15.7630 C.2    27  GLY27       0.2612
     12  O          5.1630    3.4300   14.6580 O.2    27  GLY27      -0.2717
     13  N          3.4410    3.9260   15.9660 N.am   28  ALA28      -0.1965
     14  CA         2.4590    3.7200   14.9300 C.3    28  ALA28       0.1728
     15  C          1.8170    5.0420   14.6140 C.2    28  ALA28       0.2616
     16  O          1.4500    5.7760   15.5340 O.2    28  ALA28      -0.2715
     17  CB         1.3700    2.7690   15.4060 C.3    28  ALA28       0.0334
     18  N          1.6930    5.3380   13.3350 N.am   29  ASP29      -0.1957
     19  CA         1.0250    6.5430   12.9540 C.3    29  ASP29       0.1840
     20  C         -0.4810    6.4040   13.1990 C.2    29  ASP29       0.2622
     21  O         -1.1520    7.3240   13.6640 O.2    29  ASP29      -0.2715
     22  CB         1.2700    6.8520   11.4640 C.3    29  ASP29       0.1450
     23  CG         2.7000    7.1990   11.0680 C.2    29  ASP29       0.3671
     24  OD1        3.5480    7.5040   11.9070 O.co2  29  ASP29      -0.2456
     25  OD2        2.9820    7.1470    9.8850 O.co2  29  ASP29      -0.2456
     26  N         -1.0040    5.2260   12.9520 N.am   30  ASP30      -0.1971
     27  CA        -2.4340    4.9500   12.9380 C.3    30  ASP30       0.1709
     28  C         -2.8420    3.9270   13.9780 C.2    30  ASP30       0.2293
     29  O         -1.9950    3.2940   14.6060 O.2    30  ASP30      -0.2864
     30  CB        -2.8300    4.4010   11.6050 C.3    30  ASP30       0.1436
     31  CG        -2.2720    5.2060   10.4550 C.2    30  ASP30       0.3671
     32  OD1       -2.6930    6.3500   10.2850 O.co2  30  ASP30      -0.2456
     33  OD2       -1.3870    4.6750    9.7640 O.co2  30  ASP30      -0.2456
     34  N         -4.7470    0.4980   14.3410 N.3    32  VAL32      -0.1245
     35  CA        -5.1410   -0.5920   13.4890 C.3    32  VAL32       0.1561
     36  C         -5.4490   -1.7830   14.3690 C.2    32  VAL32       0.2260
     37  O         -4.7820   -2.1400   15.3380 O.2    32  VAL32      -0.2867
     38  CB        -4.0180   -0.8350   12.2930 C.3    32  VAL32       0.0252
     39  CG1       -2.6910   -0.3060   12.6300 C.3    32  VAL32       0.0019
     40  CG2       -4.0510   -2.2780   11.8560 C.3    32  VAL32       0.0019
     41  N         -7.3570    1.1960    2.2810 N.3    45  LYS45      -0.1231
     42  CA        -6.1580    2.0020    2.4470 C.3    45  LYS45       0.1693
     43  C         -5.0090    0.9970    2.5420 C.2    45  LYS45       0.2592
     44  O         -5.2260   -0.1700    2.8550 O.2    45  LYS45      -0.2718
     45  CB        -6.2430    2.8270    3.7420 C.3    45  LYS45       0.0285
     46  CG        -5.0150    3.6650    4.0070 C.3    45  LYS45       0.0035
     47  CD        -5.1550    4.4790    5.2770 C.3    45  LYS45       0.0206
     48  CE        -3.8870    5.3250    5.5450 C.3    45  LYS45       0.1093
     49  NZ        -3.4100    6.1480    4.4240 N.3    45  LYS45      -0.1314
     50  N         -3.7710    1.3650    2.2450 N.am   46  MET46      -0.1965
     51  CA        -2.6510    0.4730    2.4000 C.3    46  MET46       0.1736
     52  C         -1.7720    1.0890    3.4250 C.2    46  MET46       0.2616
     53  O         -1.6330    2.3120    3.3300 O.2    46  MET46      -0.2715
     54  CB        -1.8780    0.3600    1.1490 C.3    46  MET46       0.0427
     55  CG        -2.5520   -0.7560    0.4000 C.3    46  MET46       0.0599
     56  SD        -1.4390   -1.2790   -0.9000 S.3    46  MET46      -0.1393
     57  CE         0.0830   -1.3650    0.0170 C.3    46  MET46       0.0692
     58  N         -1.2580    0.3040    4.3880 N.am   47  ILE47      -0.1963
     59  CA        -0.3370    0.8310    5.3950 C.3    47  ILE47       0.1727
     60  C          0.9030   -0.0820    5.5120 C.2    47  ILE47       0.2617
     61  O          0.8350   -1.2380    5.0950 O.2    47  ILE47      -0.2715
     62  CB        -0.9840    0.9460    6.8220 C.3    47  ILE47       0.0290
     63  CG1       -1.4500   -0.4140    7.3610 C.3    47  ILE47       0.0022
     64  CG2       -2.0620    2.0370    6.7230 C.3    47  ILE47       0.0023
     65  CD1       -1.8460   -0.4120    8.8530 C.3    47  ILE47       0.0001
     66  N          2.0510    0.3980    6.0180 N.am   48  GLY48      -0.1940
     67  CA         3.2250   -0.4290    6.1950 C.3    48  GLY48       0.2014
     68  C          3.5720   -0.6220    7.6440 C.2    48  GLY48       0.2639
     69  O          3.2580    0.1760    8.5430 O.2    48  GLY48      -0.2714
     70  N          4.2520   -1.7050    7.9000 N.am   49  GLY49      -0.1939
     71  CA         4.7180   -2.0290    9.2310 C.3    49  GLY49       0.2014
     72  C          6.1170   -2.5940    9.0360 C.2    49  GLY49       0.2638
     73  O          6.7090   -2.5180    7.9380 O.2    49  GLY49      -0.2714
     74  N          6.6360   -3.2630   10.0450 N.am   50  ILE50      -0.1977
     75  CA         7.9820   -3.8010    9.9630 C.3    50  ILE50       0.1596
     76  C          8.1310   -4.8120    8.8380 C.2    50  ILE50       0.2287
     77  O          9.1940   -4.8280    8.2060 O.2    50  ILE50      -0.2864
     78  CB         8.3740   -4.4730   11.3250 C.3    50  ILE50       0.0276
     79  CG1        9.8870   -4.6480   11.3880 C.3    50  ILE50       0.0022
     80  CG2        7.6670   -5.8300   11.4950 C.3    50  ILE50       0.0022
     81  CD1       10.5870   -3.3140   11.6150 C.3    50  ILE50       0.0001
     82  N          3.7640   -3.9840    3.6050 N.3    53  PHE53      -0.1241
     83  CA         2.5290   -3.2330    3.4470 C.3    53  PHE53       0.1605
     84  C          1.3840   -4.1990    3.4090 C.2    53  PHE53       0.2264
     85  O          1.5570   -5.3090    2.8950 O.2    53  PHE53      -0.2867
     86  CB         2.5730   -2.4210    2.1330 C.3    53  PHE53       0.0534
     87  CG         3.4170   -1.1720    2.3090 C.ar   53  PHE53      -0.0203
     88  CD1        4.8090   -1.2680    2.4710 C.ar   53  PHE53      -0.0042
     89  CD2        2.7800    0.0740    2.4140 C.ar   53  PHE53      -0.0042
     90  CE1        5.5620   -0.1160    2.7520 C.ar   53  PHE53      -0.0003
     91  CE2        3.5330    1.2260    2.6920 C.ar   53  PHE53      -0.0003
     92  CZ         4.9210    1.1240    2.8660 C.ar   53  PHE53      -0.0000
     93  N         -3.4490   -1.9960   17.7830 N.3    84  ILE84      -0.1245
     94  CA        -2.5440   -0.9850   18.2440 C.3    84  ILE84       0.1561
     95  C         -3.2540    0.3670   18.1900 C.2    84  ILE84       0.2260
     96  O         -4.0600    0.6360   17.3010 O.2    84  ILE84      -0.2867
     97  CB        -1.2220   -0.9450   17.4120 C.3    84  ILE84       0.0252
     98  CG1       -1.4480   -0.5350   16.0290 C.3    84  ILE84       0.0019
     99  CG2       -0.5590   -2.3200   17.4510 C.3    84  ILE84       0.0019
    100  CD1       -0.2380   -0.8860   15.1210 C.3    84  ILE84       0.0001
@<TRIPOS>BOND
     1    56    57    1
     2    56    55    1
     3    55    54    1
     4    54    51    1
     5    86    87    1
     6    86    83    1
     7    50    51    1
     8    50    43   am
     9    41    42    1
    10    87    89   ar
    11    87    88   ar
    12    51    52    1
    13    89    91   ar
    14    42    43    1
    15    42    45    1
    16    88    90   ar
    17    43    44    2
    18    91    92   ar
    19    90    92   ar
    20    85    84    2
    21    53    52    2
    22    84    83    1
    23    52    58   am
    24    83    82    1
    25    45    46    1
    26    46    47    1
    27    58    59    1
    28    49    48    1
    29    61    60    2
    30    47    48    1
    31    59    60    1
    32    59    62    1
    33    60    66   am
    34    66    67    1
    35    67    68    1
    36    64    62    1
    37    62    63    1
    38    63    65    1
    39    68    70   am
    40    68    69    2
    41    70    71    1
    42    73    72    2
    43    77    76    2
    44    76    75    1
    45    72    71    1
    46    72    74   am
    47    33    31   ar
    48    25    23   ar
    49    75    74    1
    50    75    78    1
    51    32    31   ar
    52    31    30    1
    53    23    22    1
    54    23    24   ar
    55    78    79    1
    56    78    80    1
    57    79    81    1
    58    22    19    1
    59    30    27    1
    60    40    38    1
    61    38    39    1
    62    38    35    1
    63    27    26    1
    64    27    28    1
    65    26    20   am
    66    19    20    1
    67    19    18    1
    68    20    21    2
    69    18    15   am
    70    35    34    1
    71    35    36    1
    72    28    29    2
    73    36    37    2
    74    15    14    1
    75    15    16    2
    76    12    11    2
    77    14    17    1
    78    14    13    1
    79   100    98    1
    80    11    13   am
    81    11    10    1
    82    98    97    1
    83    10     9    1
    84    96    95    2
    85    97    99    1
    86    97    94    1
    87     8     6   ar
    88    93    94    1
    89    95    94    1
    90     7     6   ar
    91     6     5    1
    92     4     3    2
    93     5     2    1
    94     3     2    1
    95     2     1    1
