@<TRIPOS>MOLECULE
tmp/1ythB00.pdb
 73 67 0 0 0
SMALL
GASTEIGER

@<TRIPOS>ATOM
      1  N          6.1390   11.8620   14.7630 N.3     8  ARG8       -0.1245
      2  CA         6.8120   10.6430   15.1580 C.3     8  ARG8        0.1563
      3  C          7.8390   10.9730   16.2130 C.2     8  ARG8        0.2260
      4  O          8.6060   11.9160   16.0240 O.2     8  ARG8       -0.2867
      5  CB         7.4810   10.0550   13.9640 C.3     8  ARG8        0.0307
      6  CG         6.4610    9.6120   12.9820 C.3     8  ARG8        0.0489
      7  CD         7.0970    8.8670   11.8190 C.3     8  ARG8        0.2205
      8  NE         6.1070    8.4620   10.8110 N.pl3   8  ARG8       -0.0865
      9  CZ         6.4520    7.9250    9.6350 C.cat   8  ARG8        0.5346
     10  NH1        7.7360    7.6440    9.3470 N.pl3   8  ARG8        0.1354
     11  NH2        5.5080    7.6400    8.7380 N.pl3   8  ARG8        0.1354
     12  N         13.2340    6.0070   16.4280 N.3    23  LEU23      -0.1245
     13  CA        11.8800    6.1770   16.8800 C.3    23  LEU23       0.1561
     14  C         11.6620    5.5480   18.2450 C.2    23  LEU23       0.2260
     15  O         11.9160    4.3530   18.4400 O.2    23  LEU23      -0.2867
     16  CB        10.9890    5.5310   15.8370 C.3    23  LEU23       0.0270
     17  CG         9.5310    5.6220   15.9930 C.3    23  LEU23       0.0019
     18  CD1        8.9990    6.9410   15.5200 C.3    23  LEU23       0.0001
     19  CD2        8.9500    4.5350   15.1340 C.3    23  LEU23       0.0001
     20  N          9.5610    3.6990   20.4270 N.3    25  ASP25      -0.1239
     21  CA         8.4300    2.8850   20.1000 C.3    25  ASP25       0.1674
     22  C          7.9810    2.0090   21.2660 C.2    25  ASP25       0.2266
     23  O          8.5080    0.9070   21.4780 O.2    25  ASP25      -0.2867
     24  CB         8.8390    2.0550   18.8780 C.3    25  ASP25       0.1410
     25  CG         7.7660    1.2280   18.1870 C.2    25  ASP25       0.3668
     26  OD1        6.6930    1.0330   18.7410 O.co2  25  ASP25      -0.2456
     27  OD2        8.0140    0.7640   17.0840 O.co2  25  ASP25      -0.2456
     28  N          5.4570    0.2450   21.2560 N.3    27  GLY27      -0.1210
     29  CA         4.8770   -0.9690   20.7310 C.3    27  GLY27       0.1956
     30  C          5.9310   -2.0670   20.5200 C.2    27  GLY27       0.2611
     31  O          5.6050   -3.2630   20.6440 O.2    27  GLY27      -0.2717
     32  N          7.2040   -1.6920   20.2850 N.am   28  ALA28      -0.1979
     33  CA         8.2730   -2.6340   20.0050 C.3    28  ALA28       0.1597
     34  C          8.8620   -3.2370   21.2780 C.2    28  ALA28       0.2287
     35  O          9.3040   -2.5460   22.1970 O.2    28  ALA28      -0.2864
     36  CB         9.3750   -1.9470   19.2790 C.3    28  ALA28       0.0319
     37  N          3.1790   -5.8490   11.5530 N.3    50  ILE50      -0.1245
     38  CA         2.3620   -5.6330   10.3710 C.3    50  ILE50       0.1561
     39  C          3.1560   -5.9230    9.1260 C.2    50  ILE50       0.2260
     40  O          4.3130   -5.5210    9.0110 O.2    50  ILE50      -0.2867
     41  CB         1.8420   -4.1560   10.4080 C.3    50  ILE50       0.0252
     42  CG1        0.6470   -4.2090   11.3250 C.3    50  ILE50       0.0019
     43  CG2        1.4500   -3.5640    9.0750 C.3    50  ILE50       0.0019
     44  CD1        0.3030   -2.8290   11.8500 C.3    50  ILE50       0.0001
     45  N         15.0940   -2.8370    8.4620 N.3    80  THR80      -0.1204
     46  CA        14.0200   -1.9230    8.8590 C.3    80  THR80       0.1979
     47  C         14.1840   -0.5700    8.1700 C.2    80  THR80       0.2460
     48  O         15.3230   -0.1690    7.9740 O.2    80  THR80      -0.2732
     49  CB        14.0390   -1.7660   10.4080 C.3    80  THR80       0.1783
     50  OG1       13.0830   -0.7500   10.6840 O.3    80  THR80      -0.2211
     51  CG2       15.3750   -1.3560   11.0030 C.3    80  THR80       0.0376
     52  N         13.1510    0.2010    7.7810 N.am   81  PRO81      -0.2717
     53  CA        13.2750    1.5920    7.3640 C.3    81  PRO81       0.1535
     54  C         13.6570    2.5300    8.4860 C.2    81  PRO81       0.2598
     55  O         14.2270    3.5970    8.2470 O.2    81  PRO81      -0.2715
     56  CB        11.9430    1.9680    6.8060 C.3    81  PRO81       0.0310
     57  CG        11.0160    1.1100    7.5990 C.3    81  PRO81       0.0237
     58  CD        11.7680   -0.2230    7.6310 C.3    81  PRO81       0.0939
     59  N         13.3500    2.1870    9.7430 N.am   82  VAL82      -0.1978
     60  CA        13.5040    3.1790   10.7750 C.3    82  VAL82       0.1596
     61  C         14.2460    2.4610   11.9040 C.2    82  VAL82       0.2287
     62  O         14.0340    1.2740   12.1000 O.2    82  VAL82      -0.2864
     63  CB        12.0560    3.6870   11.2020 C.3    82  VAL82       0.0276
     64  CG1       12.2630    5.0050   11.9170 C.3    82  VAL82       0.0022
     65  CG2       11.0930    3.9740   10.0390 C.3    82  VAL82       0.0022
     66  N         14.4270    1.6030   15.6140 N.3    84  ILE84      -0.1245
     67  CA        13.3210    1.5580   16.5280 C.3    84  ILE84       0.1561
     68  C         13.9480    1.2620   17.8520 C.2    84  ILE84       0.2260
     69  O         14.6470    0.2500   18.0130 O.2    84  ILE84      -0.2867
     70  CB        12.3270    0.4190   16.1350 C.3    84  ILE84       0.0252
     71  CG1       11.5790    0.8080   14.8880 C.3    84  ILE84       0.0019
     72  CG2       11.3650    0.1350   17.2730 C.3    84  ILE84       0.0019
     73  CD1       10.9250   -0.3820   14.1830 C.3    84  ILE84       0.0001
@<TRIPOS>BOND
     1    56    53    1
     2    56    57    1
     3    53    52    1
     4    53    54    1
     5    57    58    1
     6    58    52    1
     7    52    47   am
     8    48    47    2
     9    47    46    1
    10    55    54    2
    11    45    46    1
    12    54    59   am
    13    11     9    1
    14    46    49    1
    15    40    39    2
    16    43    41    1
    17    39    38    1
    18    10     9    1
    19     9     8    2
    20    59    60    1
    21    65    63    1
    22    38    41    1
    23    38    37    1
    24    41    42    1
    25    49    50    1
    26    49    51    1
    27    60    63    1
    28    60    61    1
    29     8     7    1
    30    63    64    1
    31    42    44    1
    32     7     6    1
    33    61    62    2
    34     6     5    1
    35     5     2    1
    36    73    71    1
    37     1     2    1
    38    71    70    1
    39    19    17    1
    40     2     3    1
    41    18    17    1
    42    66    67    1
    43    16    17    1
    44    16    13    1
    45     4     3    2
    46    70    67    1
    47    70    72    1
    48    12    13    1
    49    67    68    1
    50    13    14    1
    51    27    25   ar
    52    68    69    2
    53    25    26   ar
    54    25    24    1
    55    14    15    2
    56    24    21    1
    57    36    33    1
    58    33    32    1
    59    33    34    1
    60    21    20    1
    61    21    22    1
    62    32    30   am
    63    30    31    2
    64    30    29    1
    65    29    28    1
    66    22    23    2
    67    34    35    2
