@<TRIPOS>MOLECULE
tmp/1ytiA00.pdb
 120 111 0 0 0
SMALL
GASTEIGER

@<TRIPOS>ATOM
      1  N        -12.6590    2.3190   -3.9250 N.3    25  ASP25      -0.1239
      2  CA       -13.2730    1.4680   -2.9420 C.3    25  ASP25       0.1674
      3  C        -12.9470   -0.0200   -3.0040 C.2    25  ASP25       0.2266
      4  O        -13.5190   -0.7270   -3.8250 O.2    25  ASP25      -0.2867
      5  CB       -14.7500    1.7500   -3.0970 C.3    25  ASP25       0.1410
      6  CG       -15.7590    1.1290   -2.1520 C.2    25  ASP25       0.3668
      7  OD1      -15.4820    0.1360   -1.5020 O.co2  25  ASP25      -0.2456
      8  OD2      -16.8730    1.6190   -2.1220 O.co2  25  ASP25      -0.2456
      9  N        -13.9770   -2.3800   -1.0590 N.3    27  GLY27      -0.1210
     10  CA       -15.0390   -3.2830   -0.7140 C.3    27  GLY27       0.1956
     11  C        -15.9950   -3.2780   -1.8920 C.2    27  GLY27       0.2612
     12  O        -17.1200   -3.6850   -1.6960 O.2    27  GLY27      -0.2717
     13  N        -15.7620   -2.7110   -3.0860 N.am   28  ALA28      -0.1965
     14  CA       -16.6810   -2.8240   -4.2050 C.3    28  ALA28       0.1728
     15  C        -16.0640   -3.8340   -5.1800 C.2    28  ALA28       0.2616
     16  O        -14.8580   -3.9230   -5.4460 O.2    28  ALA28      -0.2715
     17  CB       -16.8750   -1.4920   -4.9450 C.3    28  ALA28       0.0334
     18  N        -16.9310   -4.7130   -5.6560 N.am   29  ASP29      -0.1957
     19  CA       -16.5500   -5.6580   -6.6590 C.3    29  ASP29       0.1840
     20  C        -16.3640   -5.0060   -8.0030 C.2    29  ASP29       0.2622
     21  O        -15.4190   -5.3360   -8.7020 O.2    29  ASP29      -0.2715
     22  CB       -17.5980   -6.7010   -6.8080 C.3    29  ASP29       0.1450
     23  CG       -17.5340   -7.8320   -5.8060 C.2    29  ASP29       0.3671
     24  OD1      -16.5980   -7.9190   -4.9920 O.co2  29  ASP29      -0.2456
     25  OD2      -18.4740   -8.6260   -5.8710 O.co2  29  ASP29      -0.2456
     26  N        -17.2470   -4.0600   -8.3010 N.am   30  ASP30      -0.1971
     27  CA       -17.3910   -3.3750   -9.5890 C.3    30  ASP30       0.1709
     28  C        -17.4560   -1.8580   -9.5240 C.2    30  ASP30       0.2293
     29  O        -17.5790   -1.3420   -8.4130 O.2    30  ASP30      -0.2864
     30  CB       -18.6700   -3.8050  -10.2550 C.3    30  ASP30       0.1436
     31  CG       -18.9030   -5.2980  -10.3260 C.2    30  ASP30       0.3671
     32  OD1      -18.0780   -5.9940  -10.9310 O.co2  30  ASP30      -0.2456
     33  OD2      -19.9080   -5.7380   -9.7600 O.co2  30  ASP30      -0.2456
     34  N        -19.4970    1.9640  -10.6110 N.3    32  ILE32      -0.1245
     35  CA       -20.7720    2.5070  -11.0490 C.3    32  ILE32       0.1561
     36  C        -20.6510    4.0190  -10.9870 C.2    32  ILE32       0.2260
     37  O        -20.0500    4.5450  -10.0430 O.2    32  ILE32      -0.2867
     38  CB       -21.9220    2.0430  -10.1700 C.3    32  ILE32       0.0252
     39  CG1      -23.1730    2.8390  -10.5200 C.3    32  ILE32       0.0019
     40  CG2      -21.5280    2.1910   -8.6910 C.3    32  ILE32       0.0019
     41  CD1      -24.4990    2.2560  -10.1230 C.3    32  ILE32       0.0001
     42  N        -28.4390   -4.6300  -15.5240 N.3    45  LYS45      -0.1231
     43  CA       -27.9040   -5.3330  -14.3520 C.3    45  LYS45       0.1693
     44  C        -28.6160   -4.8320  -13.0940 C.2    45  LYS45       0.2592
     45  O        -29.4100   -3.8970  -13.1440 O.2    45  LYS45      -0.2718
     46  CB       -26.4270   -5.0570  -14.1500 C.3    45  LYS45       0.0285
     47  CG       -25.4830   -5.3840  -15.2470 C.3    45  LYS45       0.0035
     48  CD       -25.2740   -6.8750  -15.3170 C.3    45  LYS45       0.0206
     49  CE       -24.9970   -7.1920  -16.7920 C.3    45  LYS45       0.1093
     50  NZ       -24.3440   -8.4740  -17.0200 N.3    45  LYS45      -0.1314
     51  N        -28.3980   -5.4550  -11.9520 N.am   46  ILE46      -0.1966
     52  CA       -28.8880   -4.9490  -10.6740 C.3    46  ILE46       0.1727
     53  C        -27.7050   -5.1840   -9.7410 C.2    46  ILE46       0.2616
     54  O        -27.0360   -6.2260   -9.7700 O.2    46  ILE46      -0.2715
     55  CB       -30.1650   -5.6850  -10.0790 C.3    46  ILE46       0.0290
     56  CG1      -30.0600   -7.1570  -10.3210 C.3    46  ILE46       0.0022
     57  CG2      -31.4580   -5.0720  -10.6530 C.3    46  ILE46       0.0023
     58  CD1      -31.4140   -7.9210  -10.3070 C.3    46  ILE46       0.0001
     59  N        -27.3370   -4.1470   -9.0090 N.am   47  VAL47      -0.1963
     60  CA       -26.2880   -4.3300   -8.0280 C.3    47  VAL47       0.1727
     61  C        -26.9120   -4.1350   -6.6520 C.2    47  VAL47       0.2617
     62  O        -27.8000   -3.2850   -6.4650 O.2    47  VAL47      -0.2715
     63  CB       -25.1000   -3.3150   -8.1960 C.3    47  VAL47       0.0290
     64  CG1      -24.3670   -3.6370   -9.4790 C.3    47  VAL47       0.0023
     65  CG2      -25.5830   -1.8790   -8.1660 C.3    47  VAL47       0.0023
     66  N        -26.4820   -4.9520   -5.7070 N.am   48  GLY48      -0.1940
     67  CA       -26.9300   -4.8060   -4.3350 C.3    48  GLY48       0.2014
     68  C        -25.8610   -4.1290   -3.4970 C.2    48  GLY48       0.2639
     69  O        -24.6730   -4.3440   -3.7550 O.2    48  GLY48      -0.2714
     70  N        -26.2710   -3.2930   -2.5390 N.am   49  GLY49      -0.1939
     71  CA       -25.3790   -2.6450   -1.5590 C.3    49  GLY49       0.2014
     72  C        -25.9060   -2.8490   -0.1220 C.2    49  GLY49       0.2638
     73  O        -26.5200   -3.8900    0.1710 O.2    49  GLY49      -0.2714
     74  N        -25.7250   -1.8380    0.7600 N.am   50  ILE50      -0.1977
     75  CA       -26.1990   -1.8670    2.1600 C.3    50  ILE50       0.1596
     76  C        -27.7020   -1.6970    2.2800 C.2    50  ILE50       0.2287
     77  O        -28.3860   -2.5900    2.8020 O.2    50  ILE50      -0.2864
     78  CB       -25.4730   -0.7420    3.0650 C.3    50  ILE50       0.0276
     79  CG1      -24.2360   -1.4090    3.6420 C.3    50  ILE50       0.0022
     80  CG2      -26.2800   -0.1780    4.2550 C.3    50  ILE50       0.0022
     81  CD1      -24.4870   -2.6950    4.4470 C.3    50  ILE50       0.0001
     82  N        -24.6400   -1.8770  -17.8790 N.3    58  GLU58      -0.1245
     83  CA       -23.2460   -2.2830  -18.0060 C.3    58  GLU58       0.1567
     84  C        -22.6890   -2.1010  -19.4390 C.2    58  GLU58       0.2260
     85  O        -23.2370   -2.6400  -20.4020 O.2    58  GLU58      -0.2867
     86  CB       -23.1790   -3.7240  -17.5700 C.3    58  GLU58       0.0388
     87  CG       -21.7550   -4.2320  -17.5270 C.3    58  GLU58       0.1160
     88  CD       -21.6090   -5.7330  -17.7890 C.2    58  GLU58       0.3649
     89  OE1      -21.8590   -6.2470  -18.8980 O.co2  58  GLU58      -0.2457
     90  OE2      -21.2030   -6.3860  -16.8440 O.co2  58  GLU58      -0.2457
     91  N        -14.8080   -2.2060  -17.7300 N.3    74  THR74      -0.1218
     92  CA       -16.2570   -2.2280  -17.5520 C.3    74  THR74       0.1862
     93  C        -16.7880   -1.1760  -16.5440 C.2    74  THR74       0.2287
     94  O        -16.3370   -1.1100  -15.3980 O.2    74  THR74      -0.2866
     95  CB       -16.6070   -3.7010  -17.1650 C.3    74  THR74       0.1770
     96  OG1      -16.1000   -4.5080  -18.2150 O.3    74  THR74      -0.2211
     97  CG2      -18.0580   -4.0170  -17.0780 C.3    74  THR74       0.0375
     98  N        -20.5130    0.6200  -14.9400 N.3    76  MET76      -0.1245
     99  CA       -21.9640    0.5680  -14.9520 C.3    76  MET76       0.1570
    100  C        -22.4070    1.9920  -14.7190 C.2    76  MET76       0.2261
    101  O        -21.6410    2.7870  -14.1580 O.2    76  MET76      -0.2867
    102  CB       -22.5580   -0.2690  -13.8130 C.3    76  MET76       0.0387
    103  CG       -22.2930   -1.7480  -14.0300 C.3    76  MET76       0.0595
    104  SD       -22.9590   -2.8610  -12.7780 S.3    76  MET76      -0.1393
    105  CE       -21.4040   -3.2230  -12.0760 C.3    76  MET76       0.0692
    106  N        -26.4750    5.9070   -8.2210 N.3    80  THR80      -0.1218
    107  CA       -25.6260    5.7500   -7.0750 C.3    80  THR80       0.1862
    108  C        -25.5670    7.1680   -6.4900 C.2    80  THR80       0.2287
    109  O        -25.6490    8.1630   -7.2130 O.2    80  THR80      -0.2866
    110  CB       -24.2810    5.1990   -7.5940 C.3    80  THR80       0.1770
    111  OG1      -23.5400    4.9290   -6.4260 O.3    80  THR80      -0.2211
    112  CG2      -23.5390    6.1190   -8.5620 C.3    80  THR80       0.0375
    113  N        -18.0780    5.3120   -7.6620 N.3    84  ILE84      -0.1245
    114  CA       -17.1740    4.3200   -7.1290 C.3    84  ILE84       0.1561
    115  C        -16.2680    3.6660   -8.1630 C.2    84  ILE84       0.2260
    116  O        -16.7790    3.1430   -9.1710 O.2    84  ILE84      -0.2867
    117  CB       -17.9090    3.1040   -6.5020 C.3    84  ILE84       0.0252
    118  CG1      -19.3770    3.2970   -6.1170 C.3    84  ILE84       0.0019
    119  CG2      -17.0560    2.7660   -5.3360 C.3    84  ILE84       0.0019
    120  CD1      -19.6720    4.0600   -4.8240 C.3    84  ILE84       0.0001
@<TRIPOS>BOND
     1    85    84    2
     2    84    83    1
     3    89    88   ar
     4    96    95    1
     5    83    82    1
     6    83    86    1
     7    88    87    1
     8    88    90   ar
     9    91    92    1
    10    86    87    1
    11    92    95    1
    12    92    93    1
    13    95    97    1
    14    50    49    1
    15    49    48    1
    16    93    94    2
    17    42    43    1
    18    48    47    1
    19    47    46    1
    20    99    98    1
    21    99   100    1
    22    99   102    1
    23   100   101    2
    24    43    46    1
    25    43    44    1
    26   103   102    1
    27   103   104    1
    28    45    44    2
    29    44    51   am
    30   104   105    1
    31    51    52    1
    32    35    36    1
    33    35    34    1
    34    35    38    1
    35    36    37    2
    36    32    31   ar
    37    52    55    1
    38    52    53    1
    39    57    55    1
    40    39    38    1
    41    39    41    1
    42    31    30    1
    43    31    33   ar
    44    56    58    1
    45    56    55    1
    46    30    27    1
    47    38    40    1
    48    54    53    2
    49    53    59   am
    50    27    28    1
    51    27    26    1
    52    28    29    2
    53    64    63    1
    54   116   115    2
    55    59    60    1
    56    21    20    2
    57   112   110    1
    58    26    20   am
    59   106   107    1
    60    63    65    1
    61    63    60    1
    62   115   114    1
    63    60    61    1
    64    20    19    1
    65   113   114    1
    66   110   107    1
    67   110   111    1
    68   109   108    2
    69   114   117    1
    70   107   108    1
    71    22    19    1
    72    22    23    1
    73    19    18    1
    74    61    62    2
    75    61    66   am
    76   117   118    1
    77   117   119    1
    78   118   120    1
    79    25    23   ar
    80    23    24   ar
    81    66    67    1
    82    18    15   am
    83    16    15    2
    84    15    14    1
    85    17    14    1
    86    67    68    1
    87    14    13    1
    88     1     2    1
    89     4     3    2
    90    69    68    2
    91    68    70   am
    92     5     2    1
    93     5     6    1
    94    13    11   am
    95     3     2    1
    96    70    71    1
    97     6     8   ar
    98     6     7   ar
    99    11    12    2
   100    11    10    1
   101    71    72    1
   102     9    10    1
   103    72    73    2
   104    72    74   am
   105    74    75    1
   106    75    76    1
   107    75    78    1
   108    76    77    2
   109    78    79    1
   110    78    80    1
   111    79    81    1
