@<TRIPOS>MOLECULE
tmp/1ytjA00.pdb
 80 75 0 0 0
SMALL
GASTEIGER

@<TRIPOS>ATOM
      1  N        -12.4780    2.2890   -3.8480 N.3    25  ASP25      -0.1239
      2  CA       -13.0720    1.4110   -2.8700 C.3    25  ASP25       0.1674
      3  C        -12.5810   -0.0320   -2.9280 C.2    25  ASP25       0.2266
      4  O        -12.9920   -0.7940   -3.7950 O.2    25  ASP25      -0.2867
      5  CB       -14.5600    1.4730   -3.0890 C.3    25  ASP25       0.1410
      6  CG       -15.4710    0.8850   -2.0470 C.2    25  ASP25       0.3668
      7  OD1      -15.1450   -0.0590   -1.3260 O.co2  25  ASP25      -0.2456
      8  OD2      -16.5680    1.3980   -1.9650 O.co2  25  ASP25      -0.2456
      9  N        -13.5950   -2.4670   -1.1480 N.3    27  GLY27      -0.1210
     10  CA       -14.6580   -3.3960   -0.9080 C.3    27  GLY27       0.1956
     11  C        -15.6560   -3.3660   -2.0420 C.2    27  GLY27       0.2612
     12  O        -16.7770   -3.8470   -1.8690 O.2    27  GLY27      -0.2717
     13  N        -15.4400   -2.6990   -3.1690 N.am   28  ALA28      -0.1965
     14  CA       -16.3830   -2.7800   -4.2660 C.3    28  ALA28       0.1728
     15  C        -15.7710   -3.7800   -5.2400 C.2    28  ALA28       0.2616
     16  O        -14.5620   -3.7330   -5.5170 O.2    28  ALA28      -0.2715
     17  CB       -16.5120   -1.4250   -4.9240 C.3    28  ALA28       0.0334
     18  N        -16.5210   -4.7500   -5.7500 N.am   29  ASP29      -0.1957
     19  CA       -15.9350   -5.6030   -6.7780 C.3    29  ASP29       0.1840
     20  C        -15.9680   -4.8810   -8.1230 C.2    29  ASP29       0.2622
     21  O        -15.0780   -5.0400   -8.9530 O.2    29  ASP29      -0.2715
     22  CB       -16.6930   -6.9070   -6.9170 C.3    29  ASP29       0.1450
     23  CG       -16.8160   -7.8170   -5.6880 C.2    29  ASP29       0.3671
     24  OD1      -15.9920   -7.7660   -4.7730 O.co2  29  ASP29      -0.2456
     25  OD2      -17.7700   -8.5990   -5.6490 O.co2  29  ASP29      -0.2456
     26  N        -16.9190   -3.9760   -8.2910 N.am   30  ASP30      -0.1971
     27  CA       -17.2190   -3.3320   -9.5580 C.3    30  ASP30       0.1709
     28  C        -17.0780   -1.8370   -9.3720 C.2    30  ASP30       0.2293
     29  O        -17.0560   -1.3580   -8.2390 O.2    30  ASP30      -0.2864
     30  CB       -18.6480   -3.5730   -9.9870 C.3    30  ASP30       0.1436
     31  CG       -19.1640   -4.9970   -9.9720 C.2    30  ASP30       0.3671
     32  OD1      -18.6650   -5.8100  -10.7470 O.co2  30  ASP30      -0.2456
     33  OD2      -20.0790   -5.2820   -9.1990 O.co2  30  ASP30      -0.2456
     34  N        -18.8990    1.8080  -10.3530 N.3    32  ILE32      -0.1245
     35  CA       -20.1730    2.2860  -10.8440 C.3    32  ILE32       0.1561
     36  C        -20.1080    3.7930  -10.6150 C.2    32  ILE32       0.2260
     37  O        -19.6340    4.3090   -9.5950 O.2    32  ILE32      -0.2867
     38  CB       -21.3590    1.4640  -10.1080 C.3    32  ILE32       0.0252
     39  CG1      -22.3860    2.4400   -9.6440 C.3    32  ILE32       0.0019
     40  CG2      -20.8940    0.5350   -8.9530 C.3    32  ILE32       0.0019
     41  CD1      -23.4340    2.5600  -10.7120 C.3    32  ILE32       0.0001
     42  N        -27.7620   -5.7330  -11.6780 N.3    46  ILE46      -0.1231
     43  CA       -28.1680   -5.2320  -10.3750 C.3    46  ILE46       0.1692
     44  C        -26.9830   -5.5460   -9.4540 C.2    46  ILE46       0.2592
     45  O        -26.3330   -6.6050   -9.5250 O.2    46  ILE46      -0.2718
     46  CB       -29.5000   -5.8970   -9.8680 C.3    46  ILE46       0.0266
     47  CG1      -29.4760   -7.3790  -10.0790 C.3    46  ILE46       0.0019
     48  CG2      -30.7060   -5.2850  -10.5970 C.3    46  ILE46       0.0020
     49  CD1      -29.3840   -8.0840   -8.6960 C.3    46  ILE46       0.0001
     50  N        -26.5700   -4.5440   -8.6910 N.am   47  VAL47      -0.1966
     51  CA       -25.4820   -4.7270   -7.7470 C.3    47  VAL47       0.1727
     52  C        -26.0650   -4.3790   -6.3790 C.2    47  VAL47       0.2617
     53  O        -26.9250   -3.4930   -6.2290 O.2    47  VAL47      -0.2715
     54  CB       -24.2530   -3.7850   -8.0350 C.3    47  VAL47       0.0290
     55  CG1      -23.5870   -4.1540   -9.3320 C.3    47  VAL47       0.0023
     56  CG2      -24.6860   -2.3550   -8.1780 C.3    47  VAL47       0.0023
     57  N        -25.6510   -5.1120   -5.3700 N.am   48  GLY48      -0.1940
     58  CA       -26.0640   -4.8450   -4.0160 C.3    48  GLY48       0.2014
     59  C        -24.9860   -4.0940   -3.2970 C.2    48  GLY48       0.2639
     60  O        -23.8200   -4.2020   -3.6650 O.2    48  GLY48      -0.2714
     61  N        -25.4120   -3.3390   -2.3020 N.am   49  GLY49      -0.1939
     62  CA       -24.5460   -2.6100   -1.3980 C.3    49  GLY49       0.2014
     63  C        -25.1590   -2.7200    0.0010 C.2    49  GLY49       0.2638
     64  O        -26.0490   -3.5410    0.2180 O.2    49  GLY49      -0.2714
     65  N        -24.7510   -1.8820    0.9580 N.am   50  ILE50      -0.1977
     66  CA       -25.2830   -1.8580    2.3170 C.3    50  ILE50       0.1596
     67  C        -26.7850   -1.7990    2.3560 C.2    50  ILE50       0.2287
     68  O        -27.3810   -2.7810    2.8000 O.2    50  ILE50      -0.2864
     69  CB       -24.6570   -0.6430    3.1280 C.3    50  ILE50       0.0276
     70  CG1      -23.3340   -1.1720    3.6880 C.3    50  ILE50       0.0022
     71  CG2      -25.5050   -0.0930    4.2880 C.3    50  ILE50       0.0022
     72  CD1      -23.4270   -2.4700    4.5320 C.3    50  ILE50       0.0001
     73  N        -17.7650    5.1310   -7.5290 N.3    84  ILE84      -0.1245
     74  CA       -16.6960    4.3250   -6.9780 C.3    84  ILE84       0.1561
     75  C        -15.9120    3.5470   -8.0550 C.2    84  ILE84       0.2260
     76  O        -16.4560    3.0660   -9.0660 O.2    84  ILE84      -0.2867
     77  CB       -17.3000    3.3280   -5.9000 C.3    84  ILE84       0.0252
     78  CG1      -18.1070    2.2260   -6.5680 C.3    84  ILE84       0.0019
     79  CG2      -18.3280    4.0270   -4.9960 C.3    84  ILE84       0.0019
     80  CD1      -18.7170    1.1600   -5.6580 C.3    84  ILE84       0.0001
@<TRIPOS>BOND
     1    42    43    1
     2    35    36    1
     3    35    34    1
     4    35    38    1
     5    32    31   ar
     6    41    39    1
     7    36    37    2
     8    48    46    1
     9    43    46    1
    10    43    44    1
    11    38    39    1
    12    38    40    1
    13    47    46    1
    14    47    49    1
    15    30    31    1
    16    30    27    1
    17    31    33   ar
    18    27    28    1
    19    27    26    1
    20    45    44    2
    21    44    50   am
    22    28    29    2
    23    55    54    1
    24    76    75    2
    25    21    20    2
    26    50    51    1
    27    26    20   am
    28    56    54    1
    29    20    19    1
    30    75    74    1
    31    54    51    1
    32    51    52    1
    33    73    74    1
    34    74    77    1
    35    22    19    1
    36    22    23    1
    37    19    18    1
    38    78    77    1
    39    78    80    1
    40    52    53    2
    41    52    57   am
    42    77    79    1
    43    18    15   am
    44    23    25   ar
    45    23    24   ar
    46    16    15    2
    47    57    58    1
    48    15    14    1
    49    17    14    1
    50    14    13    1
    51    58    59    1
    52     1     2    1
    53     4     3    2
    54    60    59    2
    55    59    61   am
    56    13    11   am
    57     5     2    1
    58     5     6    1
    59     3     2    1
    60    61    62    1
    61     6     8   ar
    62     6     7   ar
    63    11    12    2
    64    11    10    1
    65    62    63    1
    66     9    10    1
    67    63    64    2
    68    63    65   am
    69    65    66    1
    70    66    67    1
    71    66    69    1
    72    67    68    2
    73    69    70    1
    74    69    71    1
    75    70    72    1
