@<TRIPOS>MOLECULE
tmp/1ytkA00.pdb
 156 151 0 0 0
SMALL
GASTEIGER

@<TRIPOS>ATOM
      1  N         89.3670   65.7400   21.5290 N.3   138  PHE138     -0.1227
      2  CA        89.1970   66.7080   22.6050 C.3   138  PHE138      0.1736
      3  C         89.4790   66.0900   23.9600 C.2   138  PHE138      0.2596
      4  O         89.1540   66.7060   24.9690 O.2   138  PHE138     -0.2718
      5  CB        87.7360   67.1550   22.6580 C.3   138  PHE138      0.0547
      6  CG        87.4040   68.3560   21.8160 C.ar  138  PHE138     -0.0202
      7  CD1       88.2780   68.8240   20.8380 C.ar  138  PHE138     -0.0042
      8  CD2       86.2040   69.0300   22.0240 C.ar  138  PHE138     -0.0042
      9  CE1       87.9580   69.9420   20.0890 C.ar  138  PHE138     -0.0003
     10  CE2       85.8780   70.1450   21.2780 C.ar  138  PHE138     -0.0003
     11  CZ        86.7590   70.6030   20.3070 C.ar  138  PHE138     -0.0000
     12  N         90.0710   64.8980   24.0130 N.am  139  GLY139     -0.1942
     13  CA        90.2310   64.2540   25.3050 C.3   139  GLY139      0.2014
     14  C         91.5060   64.1420   26.1070 C.2   139  GLY139      0.2639
     15  O         91.5160   63.3810   27.0830 O.2   139  GLY139     -0.2714
     16  N         92.5650   64.8730   25.7630 N.am  140  ILE140     -0.1963
     17  CA        93.8110   64.7700   26.5340 C.3   140  ILE140      0.1727
     18  C         93.6660   65.0510   28.0400 C.2   140  ILE140      0.2616
     19  O         94.4320   64.5200   28.8430 O.2   140  ILE140     -0.2715
     20  CB        94.9230   65.6790   25.9360 C.3   140  ILE140      0.0290
     21  CG1       94.4090   67.1140   25.7580 C.3   140  ILE140      0.0022
     22  CG2       95.3710   65.1300   24.5880 C.3   140  ILE140      0.0023
     23  CD1       95.4740   68.0920   25.2700 C.3   140  ILE140      0.0001
     24  N         92.6700   65.8460   28.4250 N.am  141  ARG141     -0.1963
     25  CA        92.4350   66.1840   29.8440 C.3   141  ARG141      0.1729
     26  C         92.0280   65.0000   30.7430 C.2   141  ARG141      0.2616
     27  O         92.0240   65.1170   31.9710 O.2   141  ARG141     -0.2715
     28  CB        91.3280   67.2330   29.9690 C.3   141  ARG141      0.0348
     29  CG        89.9130   66.6700   29.6650 C.3   141  ARG141      0.0492
     30  CD        88.8410   67.7480   29.6910 C.3   141  ARG141      0.2205
     31  NE        89.2250   68.8930   28.8680 N.pl3 141  ARG141     -0.0865
     32  CZ        88.5970   70.0680   28.8450 C.cat 141  ARG141      0.5346
     33  NH1       87.5250   70.2740   29.5940 N.pl3 141  ARG141      0.1354
     34  NH2       89.0730   71.0590   28.0990 N.pl3 141  ARG141      0.1354
     35  N         91.6610   63.8760   30.1400 N.am  142  ARG142     -0.1977
     36  CA        91.2250   62.7170   30.9100 C.3   142  ARG142      0.1597
     37  C         92.3940   61.8190   31.2150 C.2   142  ARG142      0.2287
     38  O         92.3420   61.0230   32.1390 O.2   142  ARG142     -0.2864
     39  CB        90.1450   61.9360   30.1350 C.3   142  ARG142      0.0334
     40  CG        89.0160   61.3920   31.0140 C.3   142  ARG142      0.0492
     41  CD        88.3090   62.5280   31.7740 C.3   142  ARG142      0.2205
     42  NE        87.5140   63.3670   30.8830 N.pl3 142  ARG142     -0.0865
     43  CZ        87.0360   64.5670   31.2050 C.cat 142  ARG142      0.5346
     44  NH1       87.2770   65.0770   32.4070 N.pl3 142  ARG142      0.1354
     45  NH2       86.3150   65.2580   30.3260 N.pl3 142  ARG142      0.1354
     46  N         92.9610   69.0640   19.6790 N.3   164  SER164     -0.1217
     47  CA        92.9770   70.1940   20.6100 C.3   164  SER164      0.1889
     48  C         94.2770   70.4210   21.3850 C.2   164  SER164      0.2288
     49  O         94.5430   71.5350   21.8360 O.2   164  SER164     -0.2866
     50  CB        91.8480   70.0410   21.6300 C.3   164  SER164      0.2089
     51  OG        92.1800   69.0900   22.6250 O.3   164  SER164     -0.2183
     52  N         93.0930   72.7010   17.4390 N.3   177  VAL177     -0.1231
     53  CA        91.7160   73.1160   17.2560 C.3   177  VAL177      0.1692
     54  C         91.1800   73.6420   18.5640 C.2   177  VAL177      0.2593
     55  O         91.5010   73.1230   19.6290 O.2   177  VAL177     -0.2718
     56  CB        90.8550   71.9510   16.8080 C.3   177  VAL177      0.0266
     57  CG1       89.4200   72.3880   16.7030 C.3   177  VAL177      0.0020
     58  CG2       91.3660   71.4270   15.4850 C.3   177  VAL177      0.0020
     59  N         90.3630   74.6800   18.4860 N.am  178  GLY178     -0.1942
     60  CA        89.8040   75.2510   19.6940 C.3   178  GLY178      0.2014
     61  C         88.6160   76.1530   19.4320 C.2   178  GLY178      0.2640
     62  O         88.5020   76.7840   18.3860 O.2   178  GLY178     -0.2714
     63  N         87.7100   76.2010   20.3900 N.am  179  THR179     -0.1936
     64  CA        86.5370   77.0360   20.2750 C.3   179  THR179      0.2028
     65  C         86.6340   77.9180   21.5050 C.2   179  THR179      0.2642
     66  O         87.7040   78.4340   21.7930 O.2   179  THR179     -0.2714
     67  CB        85.2320   76.1880   20.2970 C.3   179  THR179      0.1808
     68  OG1       85.1230   75.5120   21.5490 O.3   179  THR179     -0.2208
     69  CG2       85.2500   75.1440   19.1850 C.3   179  THR179      0.0379
     70  N         85.5410   78.0940   22.2300 N.am  180  MET180     -0.1963
     71  CA        85.5850   78.9060   23.4290 C.3   180  MET180      0.1722
     72  C         85.0180   78.1070   24.6020 C.2   180  MET180      0.2458
     73  O         84.0770   77.3370   24.4440 O.2   180  MET180     -0.2730
     74  CB        84.8070   80.2110   23.2250 C.3   180  MET180      0.0427
     75  CG        83.4040   80.0370   22.7300 C.3   180  MET180      0.0599
     76  SD        82.3900   81.4570   23.1490 S.3   180  MET180     -0.1393
     77  CE        82.0390   81.1550   24.8770 C.3   180  MET180      0.0692
     78  N         85.5850   78.2870   25.7960 N.am  181  PRO181     -0.2716
     79  CA        85.1700   77.5970   27.0150 C.3   181  PRO181      0.1536
     80  C         84.0680   78.3030   27.7790 C.2   181  PRO181      0.2598
     81  O         83.8370   79.5000   27.5990 O.2   181  PRO181     -0.2715
     82  CB        86.4470   77.5730   27.8170 C.3   181  PRO181      0.0310
     83  CG        86.9430   78.9730   27.5730 C.3   181  PRO181      0.0237
     84  CD        86.7690   79.1250   26.0640 C.3   181  PRO181      0.0939
     85  N         83.4130   77.5620   28.6670 N.am  182  HIS182     -0.1974
     86  CA        82.3400   78.1310   29.4750 C.3   182  HIS182      0.1656
     87  C         82.8880   79.2490   30.3620 C.2   182  HIS182      0.2291
     88  O         82.1940   80.2260   30.6460 O.2   182  HIS182     -0.2864
     89  CB        81.6990   77.0470   30.3640 C.3   182  HIS182      0.0771
     90  CG        80.9750   75.9800   29.6020 C.ar  182  HIS182      0.0820
     91  ND1       79.7130   76.1620   29.0830 N.ar  182  HIS182     -0.2267
     92  CD2       81.3440   74.7230   29.2630 C.ar  182  HIS182      0.1154
     93  CE1       79.3340   75.0640   28.4550 C.ar  182  HIS182      0.1986
     94  NE2       80.3070   74.1760   28.5490 N.ar  182  HIS182     -0.2212
     95  N         77.9440   75.7550   19.1400 N.3   235  ARG235     -0.1245
     96  CA        78.3330   74.5300   19.8280 C.3   235  ARG235      0.1563
     97  C         77.5170   74.2840   21.0830 C.2   235  ARG235      0.2260
     98  O         77.3790   75.1630   21.9420 O.2   235  ARG235     -0.2867
     99  CB        79.8100   74.5650   20.2040 C.3   235  ARG235      0.0307
    100  CG        80.3530   73.2060   20.5910 C.3   235  ARG235      0.0489
    101  CD        81.7560   73.3200   21.1370 C.3   235  ARG235      0.2205
    102  NE        81.7430   73.4430   22.5910 N.pl3 235  ARG235     -0.0865
    103  CZ        82.8320   73.5880   23.3360 C.cat 235  ARG235      0.5346
    104  NH1       84.0170   73.6360   22.7570 N.pl3 235  ARG235      0.1354
    105  NH2       82.7440   73.6630   24.6550 N.pl3 235  ARG235      0.1354
    106  N         77.1960   71.9210   24.3780 N.3   237  ASP237     -0.1239
    107  CA        77.9160   71.0550   25.2880 C.3   237  ASP237      0.1674
    108  C         76.9560   70.8830   26.4720 C.2   237  ASP237      0.2266
    109  O         77.3510   70.9820   27.6290 O.2   237  ASP237     -0.2867
    110  CB        79.2030   71.7680   25.7060 C.3   237  ASP237      0.1410
    111  CG        80.1920   70.8510   26.3800 C.2   237  ASP237      0.3668
    112  OD1       80.5630   69.8330   25.7570 O.co2 237  ASP237     -0.2456
    113  OD2       80.6020   71.1600   27.5250 O.co2 237  ASP237     -0.2456
    114  N         79.3760   68.3110   21.5680 N.3   270  SER270     -0.1202
    115  CA        80.5260   67.8470   22.2930 C.3   270  SER270      0.2020
    116  C         80.0570   67.4390   23.6770 C.2   270  SER270      0.2619
    117  O         78.9860   67.8460   24.1280 O.2   270  SER270     -0.2717
    118  CB        81.5470   68.9780   22.3850 C.3   270  SER270      0.2103
    119  OG        81.0550   70.0520   23.1780 O.3   270  SER270     -0.2182
    120  N         80.8490   66.6190   24.3450 N.am  271  GLY271     -0.1942
    121  CA        80.4820   66.1990   25.6780 C.3   271  GLY271      0.2014
    122  C         79.9730   64.7840   25.7290 C.2   271  GLY271      0.2639
    123  O         78.8520   64.5210   25.3020 O.2   271  GLY271     -0.2714
    124  N         80.8030   63.8790   26.2490 N.am  272  GLY272     -0.1939
    125  CA        80.4330   62.4780   26.3770 C.3   272  GLY272      0.2014
    126  C         79.9960   61.8180   25.0890 C.2   272  GLY272      0.2638
    127  O         79.0760   61.0060   25.0860 O.2   272  GLY272     -0.2714
    128  N         80.6500   62.1720   23.9900 N.am  273  LEU273     -0.1977
    129  CA        80.3240   61.6080   22.6940 C.3   273  LEU273      0.1596
    130  C         80.9740   60.2440   22.4840 C.2   273  LEU273      0.2287
    131  O         82.0460   59.9470   23.0120 O.2   273  LEU273     -0.2864
    132  CB        80.7090   62.5830   21.5770 C.3   273  LEU273      0.0297
    133  CG        79.8850   63.8760   21.5980 C.3   273  LEU273      0.0022
    134  CD1       80.1840   64.6910   20.3560 C.3   273  LEU273      0.0001
    135  CD2       78.4110   63.5460   21.6590 C.3   273  LEU273      0.0001
    136  N         83.0260   67.2220   18.7900 N.3   290  GLY290     -0.1225
    137  CA        84.1720   67.3390   19.6650 C.3   290  GLY290      0.1811
    138  C         84.1060   66.0640   20.4870 C.2   290  GLY290      0.2280
    139  O         83.2170   65.9090   21.3430 O.2   290  GLY290     -0.2866
    140  N         86.0120   63.4890   23.0960 N.3   292  GLY292     -0.1210
    141  CA        87.0960   63.3200   24.0410 C.3   292  GLY292      0.1956
    142  C         87.2950   61.9710   24.7010 C.2   292  GLY292      0.2613
    143  O         87.8100   61.0360   24.0850 O.2   292  GLY292     -0.2717
    144  N         86.8820   61.8710   25.9580 N.am  293  THR293     -0.1938
    145  CA        87.0590   60.6560   26.7520 C.3   293  THR293      0.2028
    146  C         86.8930   59.3010   26.0810 C.2   293  THR293      0.2642
    147  O         87.7030   58.4050   26.3030 O.2   293  THR293     -0.2714
    148  CB        86.1560   60.6490   28.0120 C.3   293  THR293      0.1808
    149  OG1       86.4060   61.8210   28.7890 O.3   293  THR293     -0.2208
    150  CG2       86.4710   59.4380   28.8810 C.3   293  THR293      0.0379
    151  N         85.8570   59.1270   25.2770 N.am  294  SER294     -0.1949
    152  CA        85.6690   57.8290   24.6570 C.3   294  SER294      0.1924
    153  C         86.8930   57.4250   23.8510 C.2   294  SER294      0.2314
    154  O         87.2010   56.2370   23.7510 O.2   294  SER294     -0.2863
    155  CB        84.4230   57.8180   23.7750 C.3   294  SER294      0.2116
    156  OG        84.4790   58.8300   22.7940 O.3   294  SER294     -0.2180
@<TRIPOS>BOND
     1    58    56    1
     2    57    56    1
     3    56    53    1
     4    53    52    1
     5    53    54    1
     6    62    61    2
     7    59    54   am
     8    59    60    1
     9    54    55    2
    10   136   137    1
    11    95    96    1
    12    69    67    1
    13    61    60    1
    14    61    63   am
    15   137   138    1
    16    46    47    1
    17    96    99    1
    18    96    97    1
    19     9    11   ar
    20     9     7   ar
    21    99   100    1
    22    64    67    1
    23    64    63    1
    24    64    65    1
    25    67    68    1
    26    11    10   ar
    27   134   133    1
    28   138   139    2
    29   100   101    1
    30    47    48    1
    31    47    50    1
    32     7     6   ar
    33    97    98    2
    34   101   102    1
    35    10     8   ar
    36    48    49    2
    37    65    66    2
    38    65    70   am
    39     1     2    1
    40   114   115    1
    41   132   133    1
    42   132   129    1
    43   133   135    1
    44    50    51    1
    45     6     8   ar
    46     6     5    1
    47    70    71    1
    48   115   118    1
    49   115   116    1
    50   118   119    1
    51   130   129    1
    52   130   131    2
    53   102   103    2
    54     2     5    1
    55     2     3    1
    56   129   128    1
    57    75    76    1
    58    75    74    1
    59   104   103    1
    60   156   155    1
    61   140   141    1
    62    76    77    1
    63    74    71    1
    64   103   105    1
    65    71    72    1
    66   116   117    2
    67   116   120   am
    68   154   153    2
    69   155   152    1
    70   153   152    1
    71     3    12   am
    72     3     4    2
    73   128   126   am
    74    12    13    1
    75   141   142    1
    76   143   142    2
    77   120   121    1
    78   106   107    1
    79    73    72    2
    80    22    20    1
    81    72    78   am
    82   152   151    1
    83   142   144   am
    84   127   126    2
    85   126   125    1
    86    23    21    1
    87   151   146   am
    88   107   110    1
    89   107   108    1
    90   123   122    2
    91    13    14    1
    92   121   122    1
    93   110   111    1
    94   122   124   am
    95   112   111   ar
    96    21    20    1
    97    16    14   am
    98    16    17    1
    99    78    84    1
   100    78    79    1
   101    20    17    1
   102   144   145    1
   103    84    83    1
   104   146   147    2
   105   146   145    1
   106    14    15    2
   107   124   125    1
   108   111   113   ar
   109   108   109    2
   110    17    18    1
   111   145   148    1
   112    79    80    1
   113    79    82    1
   114    83    82    1
   115    81    80    2
   116    80    85   am
   117   148   149    1
   118   148   150    1
   119    18    24   am
   120    18    19    2
   121    34    32    1
   122    24    25    1
   123    93    94   ar
   124    93    91   ar
   125    94    92   ar
   126    85    86    1
   127    32    31    2
   128    32    33    1
   129    31    30    1
   130    91    90   ar
   131    92    90   ar
   132    86    87    1
   133    86    89    1
   134    90    89    1
   135    29    30    1
   136    29    28    1
   137    25    28    1
   138    25    26    1
   139    39    36    1
   140    39    40    1
   141    35    26   am
   142    35    36    1
   143    45    43    1
   144    87    88    2
   145    26    27    2
   146    42    43    2
   147    42    41    1
   148    36    37    1
   149    40    41    1
   150    43    44    1
   151    37    38    2
