@<TRIPOS>MOLECULE
tmp/1ytkA01.pdb
 92 88 0 0 0
SMALL
GASTEIGER

@<TRIPOS>ATOM
      1  N         91.2070   42.1290   23.0410 N.3    47  PRO47      -0.2116
      2  CA        89.9070   42.0090   22.3750 C.3    47  PRO47       0.1372
      3  C         90.0410   41.3380   21.0110 C.2    47  PRO47       0.2244
      4  O         90.8070   41.7920   20.1490 O.2    47  PRO47      -0.2868
      5  CB        89.4440   43.4570   22.2440 C.3    47  PRO47       0.0268
      6  CG        90.1460   44.1580   23.3280 C.3    47  PRO47       0.0207
      7  CD        91.5230   43.5350   23.3270 C.3    47  PRO47       0.0892
      8  N         87.0810   40.4400   19.3930 N.3    49  ASP49      -0.1225
      9  CA        85.8090   40.7250   18.7330 C.3    49  ASP49       0.1805
     10  C         85.8160   42.0730   18.0000 C.2    49  ASP49       0.2598
     11  O         84.7850   42.7360   17.9000 O.2    49  ASP49      -0.2718
     12  CB        84.6740   40.7180   19.7620 C.3    49  ASP49       0.1424
     13  CG        84.8310   41.8100   20.8130 C.2    49  ASP49       0.3668
     14  OD1       83.9680   41.9100   21.7080 O.co2  49  ASP49      -0.2456
     15  OD2       85.8140   42.5730   20.7510 O.co2  49  ASP49      -0.2456
     16  N         86.9690   42.4790   17.4860 N.am   50  THR50      -0.1953
     17  CA        87.0530   43.7570   16.7940 C.3    50  THR50       0.1897
     18  C         88.3270   43.8490   15.9840 C.2    50  THR50       0.2313
     19  O         89.3200   43.2060   16.3080 O.2    50  THR50      -0.2863
     20  CB        87.0380   44.9450   17.8020 C.3    50  THR50       0.1794
     21  OG1       87.1900   46.1890   17.0940 O.3    50  THR50      -0.2208
     22  CG2       88.1660   44.7990   18.8160 C.3    50  THR50       0.0378
     23  N         94.6110   51.1300   20.8900 N.3   118  GLY118     -0.1225
     24  CA        93.2370   51.1930   21.3240 C.3   118  GLY118      0.1811
     25  C         92.6580   52.5470   20.9490 C.2   118  GLY118      0.2280
     26  O         91.5020   52.6620   20.5320 O.2   118  GLY118     -0.2866
     27  N         92.1420   52.8560   17.1390 N.3   121  THR121     -0.1203
     28  CA        91.0500   51.9910   16.7090 C.3   121  THR121      0.1994
     29  C         89.7070   52.5990   17.0980 C.2   121  THR121      0.2617
     30  O         88.7500   52.5340   16.3250 O.2   121  THR121     -0.2717
     31  CB        91.1410   50.5630   17.2940 C.3   121  THR121      0.1784
     32  OG1       92.3540   49.9370   16.8610 O.3   121  THR121     -0.2211
     33  CG2       89.9700   49.7300   16.8030 C.3   121  THR121      0.0376
     34  N         89.6330   53.1960   18.2870 N.am  122  LYS122     -0.1979
     35  CA        88.3860   53.8320   18.7220 C.3   122  LYS122      0.1596
     36  C         88.0420   55.0150   17.8120 C.2   122  LYS122      0.2287
     37  O         86.8820   55.2170   17.4750 O.2   122  LYS122     -0.2864
     38  CB        88.4970   54.3180   20.1690 C.3   122  LYS122      0.0298
     39  CG        87.1560   54.5780   20.8360 C.3   122  LYS122      0.0038
     40  CD        86.2770   53.3580   20.7460 C.3   122  LYS122      0.0206
     41  CE        85.2120   53.3860   21.8050 C.3   122  LYS122      0.1093
     42  NZ        84.4930   54.6620   21.6860 N.3   122  LYS122     -0.1314
     43  N         86.4740   54.0910   14.5720 N.3   125  LYS125     -0.1245
     44  CA        85.0640   53.7810   14.7750 C.3   125  LYS125      0.1561
     45  C         84.2890   55.1050   14.7310 C.2   125  LYS125      0.2260
     46  O         83.2880   55.2330   14.0210 O.2   125  LYS125     -0.2867
     47  CB        84.8430   53.1260   16.1270 C.3   125  LYS125      0.0271
     48  CG        85.6370   51.8740   16.3650 C.3   125  LYS125      0.0035
     49  CD        85.0490   50.6990   15.6700 C.3   125  LYS125      0.0206
     50  CE        85.7740   49.4230   16.0700 C.3   125  LYS125      0.1093
     51  NZ        85.9690   49.3070   17.5380 N.3   125  LYS125     -0.1314
     52  N         80.6940   56.6730   19.3400 N.3   275  GLU275     -0.1245
     53  CA        80.4040   56.4310   17.9230 C.3   275  GLU275      0.1567
     54  C         78.9050   56.3230   17.7540 C.2   275  GLU275      0.2260
     55  O         78.3590   56.7140   16.7290 O.2   275  GLU275     -0.2867
     56  CB        80.9990   55.1270   17.4310 C.3   275  GLU275      0.0388
     57  CG        82.2770   54.7870   18.0640 C.3   275  GLU275      0.1160
     58  CD        82.1280   53.6130   18.9640 C.2   275  GLU275      0.3649
     59  OE1       81.6610   52.5750   18.4620 O.co2 275  GLU275     -0.2457
     60  OE2       82.4750   53.7250   20.1570 O.co2 275  GLU275     -0.2457
     61  N         90.2960   55.0150   25.3560 N.3   298  ALA298     -0.1231
     62  CA        90.0680   53.7260   24.7330 C.3   298  ALA298      0.1694
     63  C         90.8180   52.6360   25.4960 C.2   298  ALA298      0.2592
     64  O         91.9350   52.8500   25.9720 O.2   298  ALA298     -0.2718
     65  CB        90.5050   53.7550   23.2810 C.3   298  ALA298      0.0304
     66  N         90.1910   51.4730   25.6310 N.am  299  LYS299     -0.1966
     67  CA        90.8100   50.3510   26.3260 C.3   299  LYS299      0.1713
     68  C         91.9980   49.9240   25.4690 C.2   299  LYS299      0.2458
     69  O         91.9300   49.9770   24.2470 O.2   299  LYS299     -0.2730
     70  CB        89.7900   49.2080   26.4490 C.3   299  LYS299      0.0311
     71  CG        90.1720   48.0660   27.3860 C.3   299  LYS299      0.0038
     72  CD        90.4860   48.5410   28.8150 C.3   299  LYS299      0.0206
     73  CE        89.3610   49.3820   29.4300 C.3   299  LYS299      0.1093
     74  NZ        89.6270   49.7410   30.8540 N.3   299  LYS299     -0.1314
     75  N         93.1120   49.5260   26.0910 N.am  300  PRO300     -0.2716
     76  CA        94.2510   49.1120   25.2580 C.3   300  PRO300      0.1536
     77  C         94.0920   47.6930   24.7480 C.2   300  PRO300      0.2598
     78  O         93.3750   46.8880   25.3330 O.2   300  PRO300     -0.2715
     79  CB        95.4490   49.1950   26.2000 C.3   300  PRO300      0.0310
     80  CG        94.9780   50.0730   27.3110 C.3   300  PRO300      0.0237
     81  CD        93.5260   49.7340   27.4820 C.3   300  PRO300      0.0939
     82  N         94.7620   47.3900   23.6480 N.am  301  PHE301     -0.1974
     83  CA        94.7320   46.0350   23.1390 C.3   301  PHE301      0.1639
     84  C         95.7250   45.2910   24.0080 C.2   301  PHE301      0.2290
     85  O         96.7360   45.8420   24.4310 O.2   301  PHE301     -0.2864
     86  CB        95.1490   45.9680   21.6690 C.3   301  PHE301      0.0560
     87  CG        94.0030   46.1560   20.7150 C.ar  301  PHE301     -0.0200
     88  CD1       93.6350   47.4250   20.2840 C.ar  301  PHE301     -0.0042
     89  CD2       93.2710   45.0560   20.2680 C.ar  301  PHE301     -0.0042
     90  CE1       92.5490   47.5960   19.4190 C.ar  301  PHE301     -0.0003
     91  CE2       92.1920   45.2150   19.4100 C.ar  301  PHE301     -0.0003
     92  CZ        91.8290   46.4890   18.9840 C.ar  301  PHE301     -0.0000
@<TRIPOS>BOND
     1    46    45    2
     2    43    44    1
     3    45    44    1
     4    44    47    1
     5    49    50    1
     6    49    48    1
     7    18    19    2
     8    18    17    1
     9    50    51    1
    10    47    48    1
    11    30    29    2
    12    28    29    1
    13    28    27    1
    14    28    31    1
    15    55    54    2
    16    17    16    1
    17    17    20    1
    18    33    31    1
    19    32    31    1
    20    21    20    1
    21    29    34   am
    22    56    53    1
    23    56    57    1
    24    37    36    2
    25    16    10   am
    26    54    53    1
    27    20    22    1
    28    36    35    1
    29    11    10    2
    30    53    52    1
    31    10     9    1
    32    57    58    1
    33    34    35    1
    34    59    58   ar
    35    35    38    1
    36     9     8    1
    37     9    12    1
    38    58    60   ar
    39    92    91   ar
    40    92    90   ar
    41    91    89   ar
    42    90    88   ar
    43    12    13    1
    44     4     3    2
    45    38    39    1
    46    89    87   ar
    47    88    87   ar
    48    26    25    2
    49    87    86    1
    50    40    39    1
    51    40    41    1
    52    15    13   ar
    53    13    14   ar
    54    23    24    1
    55    25    24    1
    56     3     2    1
    57    86    83    1
    58    42    41    1
    59     5     2    1
    60     5     6    1
    61     2     1    1
    62     1     7    1
    63    83    82    1
    64    83    84    1
    65    65    62    1
    66     7     6    1
    67    82    77   am
    68    84    85    2
    69    69    68    2
    70    62    61    1
    71    62    63    1
    72    77    76    1
    73    77    78    2
    74    76    75    1
    75    76    79    1
    76    68    75   am
    77    68    67    1
    78    63    66   am
    79    63    64    2
    80    66    67    1
    81    75    81    1
    82    79    80    1
    83    67    70    1
    84    70    71    1
    85    80    81    1
    86    71    72    1
    87    72    73    1
    88    73    74    1
