@<TRIPOS>MOLECULE
tmp/1ytmB00.pdb
 187 179 0 0 0
SMALL
GASTEIGER

@<TRIPOS>ATOM
      1  N         77.0010   75.0840   43.8770 N.3   205  LYS205     -0.1245
      2  CA        77.7000   76.2950   43.4490 C.3   205  LYS205      0.1561
      3  C         79.1770   76.0860   43.1270 C.2   205  LYS205      0.2260
      4  O         79.7810   76.8910   42.4190 O.2   205  LYS205     -0.2867
      5  CB        77.5420   77.3960   44.4990 C.3   205  LYS205      0.0271
      6  CG        76.4960   78.4310   44.1130 C.3   205  LYS205      0.0035
      7  CD        75.1270   77.8310   43.9420 C.3   205  LYS205      0.0206
      8  CE        74.3590   78.5240   42.8260 C.3   205  LYS205      0.1093
      9  NZ        74.1270   79.9590   43.0510 N.3   205  LYS205     -0.1314
     10  N         74.3990   83.1520   35.6620 N.3   224  HIS224     -0.1241
     11  CA        73.6580   82.9640   36.9090 C.3   224  HIS224      0.1621
     12  C         72.2840   83.5340   36.5770 C.2   224  HIS224      0.2264
     13  O         72.0310   84.7300   36.7890 O.2   224  HIS224     -0.2867
     14  CB        74.2740   83.7700   38.0590 C.3   224  HIS224      0.0745
     15  CG        73.5920   83.5520   39.3770 C.ar  224  HIS224      0.0817
     16  ND1       73.6430   84.4680   40.4050 N.ar  224  HIS224     -0.2268
     17  CD2       72.8550   82.5100   39.8390 C.ar  224  HIS224      0.1154
     18  CE1       72.9690   84.0010   41.4420 C.ar  224  HIS224      0.1986
     19  NE2       72.4810   82.8150   41.1240 N.ar  224  HIS224     -0.2212
     20  N         71.2180   88.4380   41.3240 N.3   242  LEU242     -0.1231
     21  CA        72.0170   87.8970   42.4060 C.3   242  LEU242      0.1693
     22  C         71.1230   86.9670   43.2230 C.2   242  LEU242      0.2593
     23  O         69.9140   86.8800   42.9910 O.2   242  LEU242     -0.2718
     24  CB        72.5620   89.0270   43.2780 C.3   242  LEU242      0.0284
     25  CG        73.6110   88.6020   44.3060 C.3   242  LEU242      0.0019
     26  CD1       74.7520   87.9240   43.5670 C.3   242  LEU242      0.0001
     27  CD2       74.1170   89.7900   45.1020 C.3   242  LEU242      0.0001
     28  N         71.7310   86.2720   44.1770 N.am  243  SER243     -0.1938
     29  CA        71.0320   85.3370   45.0620 C.3   243  SER243      0.2055
     30  C         69.8150   85.9960   45.7360 C.2   243  SER243      0.2644
     31  O         69.9230   87.1080   46.2410 O.2   243  SER243     -0.2714
     32  CB        72.0090   84.8360   46.1360 C.3   243  SER243      0.2130
     33  OG        73.2640   84.4820   45.5880 O.3   243  SER243     -0.2179
     34  N         68.6660   85.3180   45.7360 N.am  244  GLY244     -0.1939
     35  CA        67.4700   85.8580   46.3820 C.3   244  GLY244      0.2014
     36  C         66.7810   87.0870   45.8020 C.2   244  GLY244      0.2640
     37  O         65.9550   87.7000   46.4980 O.2   244  GLY244     -0.2714
     38  N         67.0730   87.4490   44.5500 N.am  245  THR245     -0.1936
     39  CA        66.4440   88.6410   43.9720 C.3   245  THR245      0.2028
     40  C         65.2690   88.4530   43.0110 C.2   245  THR245      0.2643
     41  O         64.7030   89.4360   42.5320 O.2   245  THR245     -0.2714
     42  CB        67.5110   89.5930   43.3360 C.3   245  THR245      0.1808
     43  OG1       68.1980   88.9370   42.2670 O.3   245  THR245     -0.2208
     44  CG2       68.5030   90.0300   44.4110 C.3   245  THR245      0.0379
     45  N         64.8790   87.2100   42.7330 N.am  246  GLY246     -0.1939
     46  CA        63.7210   87.0000   41.8690 C.3   246  GLY246      0.2014
     47  C         63.7890   86.0310   40.7060 C.2   246  GLY246      0.2639
     48  O         62.7790   85.8330   40.0190 O.2   246  GLY246     -0.2714
     49  N         64.9390   85.4080   40.4770 N.am  247  LYS247     -0.1963
     50  CA        65.0630   84.4960   39.3440 C.3   247  LYS247      0.1728
     51  C         64.0730   83.3450   39.3730 C.2   247  LYS247      0.2617
     52  O         63.3380   83.1280   38.4160 O.2   247  LYS247     -0.2715
     53  CB        66.4960   83.9540   39.2500 C.3   247  LYS247      0.0311
     54  CG        67.5230   84.9970   38.8260 C.3   247  LYS247      0.0038
     55  CD        68.9040   84.3960   38.6010 C.3   247  LYS247      0.0206
     56  CE        69.3840   83.5170   39.7610 C.3   247  LYS247      0.1093
     57  NZ        69.5210   84.2330   41.0790 N.3   247  LYS247     -0.1314
     58  N         64.0530   82.6040   40.4690 N.am  248  THR248     -0.1937
     59  CA        63.1450   81.4800   40.5720 C.3   248  THR248      0.2028
     60  C         61.6970   81.9490   40.5780 C.2   248  THR248      0.2643
     61  O         60.8700   81.4120   39.8430 O.2   248  THR248     -0.2714
     62  CB        63.4610   80.6460   41.8390 C.3   248  THR248      0.1808
     63  OG1       64.7490   80.0410   41.6720 O.3   248  THR248     -0.2208
     64  CG2       62.4430   79.5540   42.0430 C.3   248  THR248      0.0379
     65  N         61.3980   82.9730   41.3760 N.am  249  THR249     -0.1936
     66  CA        60.0380   83.5070   41.4550 C.3   249  THR249      0.2028
     67  C         59.4940   83.9590   40.1020 C.2   249  THR249      0.2642
     68  O         58.4260   83.5300   39.6870 O.2   249  THR249     -0.2714
     69  CB        59.9480   84.7230   42.4020 C.3   249  THR249      0.1808
     70  OG1       60.5050   84.3860   43.6750 O.3   249  THR249     -0.2208
     71  CG2       58.4780   85.1680   42.5560 C.3   249  THR249      0.0379
     72  N         60.2330   84.8180   39.4080 N.am  250  LEU250     -0.1977
     73  CA        59.7600   85.3370   38.1240 C.3   250  LEU250      0.1596
     74  C         59.8000   84.3650   36.9460 C.2   250  LEU250      0.2287
     75  O         59.0300   84.5150   35.9970 O.2   250  LEU250     -0.2864
     76  CB        60.5210   86.6250   37.7850 C.3   250  LEU250      0.0297
     77  CG        60.3920   87.6960   38.8750 C.3   250  LEU250      0.0022
     78  CD1       61.2520   88.8980   38.5170 C.3   250  LEU250      0.0001
     79  CD2       58.9350   88.0960   39.0470 C.3   250  LEU250      0.0001
     80  N         66.2020   77.1890   36.6540 N.3   261  ASP261     -0.1225
     81  CA        66.0370   78.3980   37.4580 C.3   261  ASP261      0.1805
     82  C         67.2690   79.0920   38.0240 C.2   261  ASP261      0.2597
     83  O         67.1330   80.1670   38.6220 O.2   261  ASP261     -0.2718
     84  CB        65.0720   78.1300   38.6210 C.3   261  ASP261      0.1424
     85  CG        65.7180   77.3380   39.7640 C.2   261  ASP261      0.3668
     86  OD1       65.3360   77.5730   40.9290 O.co2 261  ASP261     -0.2456
     87  OD2       66.5920   76.4820   39.5110 O.co2 261  ASP261     -0.2456
     88  N         68.4610   78.5360   37.8190 N.am  262  ASP262     -0.1974
     89  CA        69.6450   79.1390   38.4180 C.3   262  ASP262      0.1709
     90  C         70.9590   79.1550   37.6390 C.2   262  ASP262      0.2293
     91  O         71.7120   80.1270   37.7130 O.2   262  ASP262     -0.2864
     92  CB        69.8740   78.4570   39.7760 C.3   262  ASP262      0.1436
     93  CG        70.9480   79.1310   40.6000 C.2   262  ASP262      0.3671
     94  OD1       72.0100   78.5110   40.8160 O.co2 262  ASP262     -0.2456
     95  OD2       70.7330   80.2830   41.0250 O.co2 262  ASP262     -0.2456
     96  N         66.6840   74.5660   43.4330 N.3   279  TYR279     -0.1227
     97  CA        67.0180   74.8230   44.8300 C.3   279  TYR279      0.1736
     98  C         66.3530   76.1590   45.1340 C.2   279  TYR279      0.2595
     99  O         67.0150   77.1770   45.2750 O.2   279  TYR279     -0.2718
    100  CB        68.5350   74.9450   44.9620 C.3   279  TYR279      0.0548
    101  CG        69.0540   75.1180   46.3720 C.ar  279  TYR279     -0.0200
    102  CD1       68.6490   74.2660   47.4050 C.ar  279  TYR279     -0.0009
    103  CD2       70.0320   76.0740   46.6500 C.ar  279  TYR279     -0.0009
    104  CE1       69.2240   74.3610   48.6780 C.ar  279  TYR279      0.0417
    105  CE2       70.6060   76.1750   47.9060 C.ar  279  TYR279      0.0417
    106  CZ        70.2060   75.3160   48.9100 C.ar  279  TYR279      0.1957
    107  OH        70.8380   75.3840   50.1270 O.3   279  TYR279     -0.2866
    108  N         65.0330   76.1390   45.2390 N.am  280  ALA280     -0.1966
    109  CA        64.2650   77.3540   45.4600 C.3   280  ALA280      0.1728
    110  C         64.0890   77.8020   46.9000 C.2   280  ALA280      0.2616
    111  O         64.0910   76.9940   47.8210 O.2   280  ALA280     -0.2715
    112  CB        62.9120   77.2000   44.8030 C.3   280  ALA280      0.0334
    113  N         63.9360   79.1080   47.0810 N.am  281  LYS281     -0.1977
    114  CA        63.6920   79.6580   48.4080 C.3   281  LYS281      0.1596
    115  C         62.2210   79.3580   48.7050 C.2   281  LYS281      0.2287
    116  O         61.4000   79.3220   47.7810 O.2   281  LYS281     -0.2864
    117  CB        63.9420   81.1620   48.4090 C.3   281  LYS281      0.0298
    118  CG        65.4180   81.5550   48.3840 C.3   281  LYS281      0.0038
    119  CD        65.6150   83.0360   48.0550 C.3   281  LYS281      0.0206
    120  CE        64.6910   83.9510   48.8650 C.3   281  LYS281      0.1093
    121  NZ        64.9000   83.8940   50.3520 N.3   281  LYS281     -0.1314
    122  N         60.6940   80.7580   51.8560 N.3   283  ILE283     -0.1245
    123  CA        60.1980   81.6530   52.8950 C.3   283  ILE283      0.1561
    124  C         58.8850   82.3030   52.4430 C.2   283  ILE283      0.2260
    125  O         58.7540   82.7360   51.2970 O.2   283  ILE283     -0.2867
    126  CB        61.2320   82.7630   53.2710 C.3   283  ILE283      0.0252
    127  CG1       60.8110   83.4240   54.5850 C.3   283  ILE283      0.0019
    128  CG2       61.3280   83.8350   52.1760 C.3   283  ILE283      0.0019
    129  CD1       60.9000   82.4880   55.7900 C.3   283  ILE283      0.0001
    130  N         65.1070   76.7760   52.2570 N.3   326  ARG326     -0.1245
    131  CA        65.1870   76.1980   50.9180 C.3   326  ARG326      0.1563
    132  C         64.5280   74.8410   50.7380 C.2   326  ARG326      0.2260
    133  O         64.1360   74.1730   51.6910 O.2   326  ARG326     -0.2867
    134  CB        66.6560   76.0160   50.5180 C.3   326  ARG326      0.0307
    135  CG        67.4700   77.2900   50.4070 C.3   326  ARG326      0.0489
    136  CD        67.4070   77.9050   49.0080 C.3   326  ARG326      0.2205
    137  NE        68.1360   79.1760   48.9870 N.pl3 326  ARG326     -0.0865
    138  CZ        68.4760   79.8510   47.8930 C.cat 326  ARG326      0.5346
    139  NH1       68.1540   79.3780   46.6940 N.pl3 326  ARG326      0.1354
    140  NH2       69.1510   80.9990   48.0090 N.pl3 326  ARG326      0.1354
    141  N         63.5040   94.5470   41.4700 N.3   434  THR434     -0.1218
    142  CA        62.6480   93.6670   42.2520 C.3   434  THR434      0.1862
    143  C         62.8160   94.0520   43.7010 C.2   434  THR434      0.2287
    144  O         62.3500   93.3490   44.6000 O.2   434  THR434     -0.2866
    145  CB        63.0300   92.1900   42.1250 C.3   434  THR434      0.1770
    146  OG1       64.4040   92.0090   42.4900 O.3   434  THR434     -0.2211
    147  CG2       62.8080   91.7020   40.7080 C.3   434  THR434      0.0375
    148  N         58.9640   96.7920   49.0660 N.3   442  ARG442     -0.1231
    149  CA        59.3910   96.2580   47.7830 C.3   442  ARG442      0.1694
    150  C         58.2700   96.3600   46.7680 C.2   442  ARG442      0.2592
    151  O         57.0890   96.2970   47.1120 O.2   442  ARG442     -0.2718
    152  CB        59.8210   94.7950   47.9070 C.3   442  ARG442      0.0321
    153  CG        61.0790   94.5930   48.7330 C.3   442  ARG442      0.0489
    154  CD        61.5520   93.1490   48.7320 C.3   442  ARG442      0.2205
    155  NE        62.0540   92.6740   47.4420 N.pl3 442  ARG442     -0.0865
    156  CZ        62.6050   91.4730   47.2770 C.cat 442  ARG442      0.5346
    157  NH1       62.7180   90.6590   48.3160 N.pl3 442  ARG442      0.1354
    158  NH2       63.0230   91.0690   46.0870 N.pl3 442  ARG442      0.1354
    159  N         58.6570   96.5310   45.5140 N.am  443  ILE443     -0.1966
    160  CA        57.7110   96.6290   44.4240 C.3   443  ILE443      0.1727
    161  C         56.8480   95.3730   44.4270 C.2   443  ILE443      0.2617
    162  O         57.3480   94.2630   44.6150 O.2   443  ILE443     -0.2715
    163  CB        58.4750   96.7930   43.0980 C.3   443  ILE443      0.0290
    164  CG1       59.1340   98.1760   43.0870 C.3   443  ILE443      0.0022
    165  CG2       57.5380   96.6020   41.9080 C.3   443  ILE443      0.0023
    166  CD1       60.3360   98.2950   42.1820 C.3   443  ILE443      0.0001
    167  N         55.5490   95.5660   44.2500 N.am  444  SER444     -0.1936
    168  CA        54.5990   94.4730   44.2450 C.3   444  SER444      0.2055
    169  C         54.9710   93.3530   43.2810 C.2   444  SER444      0.2642
    170  O         55.4090   93.6010   42.1570 O.2   444  SER444     -0.2714
    171  CB        53.2080   94.9990   43.8770 C.3   444  SER444      0.2130
    172  OG        52.3060   93.9220   43.7000 O.3   444  SER444     -0.2179
    173  N         54.7960   92.1170   43.7320 N.am  445  ILE445     -0.1977
    174  CA        55.0920   90.9580   42.9110 C.3   445  ILE445      0.1596
    175  C         54.1350   90.9730   41.7120 C.2   445  ILE445      0.2287
    176  O         54.5260   90.6110   40.6000 O.2   445  ILE445     -0.2864
    177  CB        54.9090   89.6390   43.7100 C.3   445  ILE445      0.0276
    178  CG1       55.2270   88.4430   42.8210 C.3   445  ILE445      0.0022
    179  CG2       53.4780   89.5270   44.2340 C.3   445  ILE445      0.0022
    180  CD1       56.6700   88.3810   42.4080 C.3   445  ILE445      0.0001
    181  N         55.3850   93.4310   39.2060 N.3   448  THR448     -0.1218
    182  CA        56.5960   92.9230   38.5810 C.3   448  THR448      0.1862
    183  C         56.3060   91.8510   37.5240 C.2   448  THR448      0.2287
    184  O         56.9020   91.8690   36.4490 O.2   448  THR448     -0.2866
    185  CB        57.5750   92.3600   39.6330 C.3   448  THR448      0.1770
    186  OG1       57.9170   93.3900   40.5630 O.3   448  THR448     -0.2211
    187  CG2       58.8460   91.8630   38.9570 C.3   448  THR448      0.0375
@<TRIPOS>BOND
     1    10    11    1
     2    75    74    2
     3   184   183    2
     4    12    13    2
     5    12    11    1
     6    80    81    1
     7    11    14    1
     8    74    73    1
     9    81    82    1
    10    81    84    1
    11   183   182    1
    12    90    91    2
    13    90    89    1
    14    76    73    1
    15    76    77    1
    16    88    82   am
    17    88    89    1
    18    82    83    2
    19    14    15    1
    20    73    72    1
    21    52    51    2
    22    89    92    1
    23    78    77    1
    24   182   181    1
    25   182   185    1
    26    55    54    1
    27    55    56    1
    28    84    85    1
    29    54    53    1
    30    77    79    1
    31   187   185    1
    32    53    50    1
    33    50    51    1
    34    50    49    1
    35    51    58   am
    36    15    17   ar
    37    15    16   ar
    38    72    67   am
    39    87    85   ar
    40   185   186    1
    41    68    67    2
    42    56    57    1
    43    85    86   ar
    44    92    93    1
    45    17    19   ar
    46    61    60    2
    47    48    47    2
    48    67    66    1
    49    16    18   ar
    50    58    59    1
    51    49    47   am
    52    59    60    1
    53    59    62    1
    54    60    65   am
    55    93    94   ar
    56    93    95   ar
    57   176   175    2
    58    47    46    1
    59   147   145    1
    60    19    18   ar
    61    20    21    1
    62    65    66    1
    63    66    69    1
    64   141   142    1
    65    63    62    1
    66   175   174    1
    67    62    64    1
    68    46    45    1
    69   165   163    1
    70   145   142    1
    71   145   146    1
    72   170   169    2
    73   166   164    1
    74   142   143    1
    75    43    42    1
    76    69    71    1
    77    69    70    1
    78    21    22    1
    79    21    24    1
    80   180   178    1
    81     4     3    2
    82    41    40    2
    83    45    40   am
    84   178   177    1
    85     8     9    1
    86     8     7    1
    87   174   177    1
    88   174   173    1
    89    23    22    2
    90    40    39    1
    91   164   163    1
    92   163   160    1
    93     3     2    1
    94    22    28   am
    95    24    25    1
    96   169   173   am
    97   169   168    1
    98    42    39    1
    99    42    44    1
   100    96    97    1
   101     2     1    1
   102     2     5    1
   103    26    25    1
   104   172   171    1
   105   143   144    2
   106   177   179    1
   107   171   168    1
   108     7     6    1
   109    39    38    1
   110     6     5    1
   111    28    29    1
   112   168   167    1
   113   167   161   am
   114    25    27    1
   115   160   161    1
   116   160   159    1
   117   161   162    2
   118    38    36   am
   119   112   109    1
   120    97   100    1
   121    97    98    1
   122   100   101    1
   123    29    30    1
   124    29    32    1
   125    98   108   am
   126    98    99    2
   127   108   109    1
   128   109   110    1
   129   159   150   am
   130    33    32    1
   131    34    30   am
   132    34    35    1
   133    30    31    2
   134    36    35    1
   135    36    37    2
   136   158   156    1
   137   101   103   ar
   138   101   102   ar
   139   103   105   ar
   140   139   138    1
   141   150   151    2
   142   150   149    1
   143   110   113   am
   144   110   111    2
   145   113   114    1
   146   156   155    2
   147   156   157    1
   148   102   104   ar
   149   155   154    1
   150   116   115    2
   151   149   152    1
   152   149   148    1
   153   138   140    1
   154   138   137    2
   155   105   106   ar
   156   152   153    1
   157   119   118    1
   158   119   120    1
   159   118   117    1
   160   114   117    1
   161   114   115    1
   162   104   106   ar
   163   154   153    1
   164   120   121    1
   165   106   107    1
   166   137   136    1
   167   136   135    1
   168   135   134    1
   169   134   131    1
   170   132   131    1
   171   132   133    2
   172   131   130    1
   173   125   124    2
   174   122   123    1
   175   128   126    1
   176   124   123    1
   177   123   126    1
   178   126   127    1
   179   127   129    1
