@<TRIPOS>MOLECULE
tmp/1ytvA00.pdb
 127 121 0 0 0
SMALL
GASTEIGER

@<TRIPOS>ATOM
      1  N         56.8020   55.6150   -3.5170 N.3   169  PHE169     -0.1241
      2  CA        58.2110   55.2970   -3.2970 C.3   169  PHE169      0.1605
      3  C         58.4390   53.7960   -3.3810 C.2   169  PHE169      0.2264
      4  O         57.6640   53.0150   -2.8310 O.2   169  PHE169     -0.2867
      5  CB        58.6510   55.8090   -1.9240 C.3   169  PHE169      0.0534
      6  CG        58.4800   57.2900   -1.7520 C.ar  169  PHE169     -0.0203
      7  CD1       59.2540   58.1790   -2.4940 C.ar  169  PHE169     -0.0042
      8  CD2       57.5350   57.8000   -0.8630 C.ar  169  PHE169     -0.0042
      9  CE1       59.0920   59.5560   -2.3560 C.ar  169  PHE169     -0.0003
     10  CE2       57.3630   59.1750   -0.7180 C.ar  169  PHE169     -0.0003
     11  CZ        58.1450   60.0560   -1.4660 C.ar  169  PHE169     -0.0000
     12  N         63.3380   56.9020   -1.2870 N.3   178  ILE178     -0.1231
     13  CA        62.8150   58.2210   -1.6540 C.3   178  ILE178      0.1692
     14  C         63.2350   58.6860   -3.0380 C.2   178  ILE178      0.2591
     15  O         62.5750   59.5310   -3.6480 O.2   178  ILE178     -0.2718
     16  CB        63.3120   59.3010   -0.6820 C.3   178  ILE178      0.0266
     17  CG1       63.0220   58.8850    0.7530 C.3   178  ILE178      0.0019
     18  CG2       62.6500   60.6280   -1.0010 C.3   178  ILE178      0.0020
     19  CD1       61.5700   58.7270    1.0310 C.3   178  ILE178      0.0001
     20  N         64.3500   58.1510   -3.5150 N.am  179  LYS179     -0.1980
     21  CA        64.8870   58.5360   -4.8050 C.3   179  LYS179      0.1596
     22  C         64.3510   57.6950   -5.9540 C.2   179  LYS179      0.2287
     23  O         64.7060   57.9230   -7.1070 O.2   179  LYS179     -0.2864
     24  CB        66.4140   58.4450   -4.7690 C.3   179  LYS179      0.0298
     25  CG        67.0450   59.2370   -3.6340 C.3   179  LYS179      0.0038
     26  CD        66.6780   60.7080   -3.7170 C.3   179  LYS179      0.0206
     27  CE        67.2550   61.4890   -2.5530 C.3   179  LYS179      0.1093
     28  NZ        66.9130   62.9360   -2.6660 N.3   179  LYS179     -0.1314
     29  N         60.9140   57.0410   -7.3500 N.3   181  VAL181     -0.1245
     30  CA        59.4900   57.3670   -7.3950 C.3   181  VAL181      0.1561
     31  C         58.8140   56.8380   -8.6590 C.2   181  VAL181      0.2260
     32  O         59.4260   56.7860   -9.7280 O.2   181  VAL181     -0.2867
     33  CB        59.2930   58.9010   -7.3080 C.3   181  VAL181      0.0252
     34  CG1       57.8180   59.2560   -7.3300 C.3   181  VAL181      0.0019
     35  CG2       59.9430   59.4280   -6.0440 C.3   181  VAL181      0.0019
     36  N         55.6890   58.0540   -9.8830 N.3   183  VAL183     -0.1245
     37  CA        54.5820   58.9140  -10.2890 C.3   183  VAL183      0.1561
     38  C         54.6350   59.2930  -11.7650 C.2   183  VAL183      0.2260
     39  O         53.6750   59.8440  -12.3010 O.2   183  VAL183     -0.2867
     40  CB        54.5340   60.2160   -9.4650 C.3   183  VAL183      0.0252
     41  CG1       54.3600   59.8900   -7.9950 C.3   183  VAL183      0.0019
     42  CG2       55.7970   61.0340   -9.7020 C.3   183  VAL183      0.0019
     43  N         58.8660   62.0480    3.9680 N.3   335  GLN335     -0.1245
     44  CA        58.7730   62.4800    2.5750 C.3   335  GLN335      0.1566
     45  C         57.3490   62.4320    2.0210 C.2   335  GLN335      0.2260
     46  O         57.0840   62.9810    0.9500 O.2   335  GLN335     -0.2867
     47  CB        59.6960   61.6170    1.7010 C.3   335  GLN335      0.0367
     48  CG        60.0120   62.2110    0.3250 C.3   335  GLN335      0.0905
     49  CD        60.8780   63.4610    0.4010 C.2   335  GLN335      0.2608
     50  OE1       61.0540   64.1720   -0.5940 O.2   335  GLN335     -0.2717
     51  NE2       61.4310   63.7320    1.5840 N.am  335  GLN335     -0.0878
     52  N         55.9140   65.7510    0.8840 N.3   338  ALA338     -0.1231
     53  CA        56.4760   66.2390   -0.3770 C.3   338  ALA338      0.1694
     54  C         55.7960   65.5070   -1.5320 C.2   338  ALA338      0.2592
     55  O         55.4930   66.0980   -2.5730 O.2   338  ALA338     -0.2718
     56  CB        57.9780   65.9890   -0.4190 C.3   338  ALA338      0.0304
     57  N         55.5680   64.2120   -1.3390 N.am  339  PHE339     -0.1976
     58  CA        54.9060   63.3930   -2.3480 C.3   339  PHE339      0.1639
     59  C         53.4910   63.9000   -2.5990 C.2   339  PHE339      0.2290
     60  O         53.0990   64.1070   -3.7460 O.2   339  PHE339     -0.2864
     61  CB        54.8400   61.9310   -1.8970 C.3   339  PHE339      0.0560
     62  CG        53.7990   61.1160   -2.6220 C.ar  339  PHE339     -0.0200
     63  CD1       54.0470   60.6020   -3.8960 C.ar  339  PHE339     -0.0042
     64  CD2       52.5640   60.8640   -2.0270 C.ar  339  PHE339     -0.0042
     65  CE1       53.0780   59.8480   -4.5650 C.ar  339  PHE339     -0.0003
     66  CE2       51.5900   60.1130   -2.6880 C.ar  339  PHE339     -0.0003
     67  CZ        51.8470   59.6010   -3.9580 C.ar  339  PHE339     -0.0000
     68  N         52.1300   66.8610   -1.9540 N.3   341  TYR341     -0.1227
     69  CA        52.1070   68.2000   -2.5370 C.3   341  TYR341      0.1736
     70  C         52.4230   68.1170   -4.0330 C.2   341  TYR341      0.2595
     71  O         51.7720   68.7590   -4.8670 O.2   341  TYR341     -0.2718
     72  CB        53.1390   69.0830   -1.8420 C.3   341  TYR341      0.0548
     73  CG        53.0650   70.5220   -2.2710 C.ar  341  TYR341     -0.0200
     74  CD1       51.9710   71.3140   -1.9240 C.ar  341  TYR341     -0.0009
     75  CD2       54.0790   71.0920   -3.0340 C.ar  341  TYR341     -0.0009
     76  CE1       51.8890   72.6410   -2.3250 C.ar  341  TYR341      0.0417
     77  CE2       54.0090   72.4170   -3.4430 C.ar  341  TYR341      0.0417
     78  CZ        52.9130   73.1850   -3.0840 C.ar  341  TYR341      0.1957
     79  OH        52.8460   74.5040   -3.4710 O.3   341  TYR341     -0.2866
     80  N         53.4320   67.3150   -4.3570 N.am  342  ALA342     -0.1966
     81  CA        53.8680   67.1120   -5.7380 C.3   342  ALA342      0.1728
     82  C         52.7500   66.5760   -6.6270 C.2   342  ALA342      0.2616
     83  O         52.5190   67.0850   -7.7240 O.2   342  ALA342     -0.2715
     84  CB        55.0460   66.1520   -5.7670 C.3   342  ALA342      0.0334
     85  N         52.0620   65.5390   -6.1610 N.am  343  VAL343     -0.1977
     86  CA        50.9810   64.9470   -6.9420 C.3   343  VAL343      0.1596
     87  C         49.7850   65.8860   -7.0400 C.2   343  VAL343      0.2287
     88  O         49.1300   65.9500   -8.0760 O.2   343  VAL343     -0.2864
     89  CB        50.5460   63.5850   -6.3450 C.3   343  VAL343      0.0276
     90  CG1       49.3510   63.0240   -7.1090 C.3   343  VAL343      0.0022
     91  CG2       51.7110   62.6040   -6.4130 C.3   343  VAL343      0.0022
     92  N         49.7900   69.1340   -7.1590 N.3   345  THR345     -0.1218
     93  CA        50.1120   70.1140   -8.1890 C.3   345  THR345      0.1862
     94  C         50.0220   69.5010   -9.5860 C.2   345  THR345      0.2287
     95  O         49.4890   70.1200  -10.5050 O.2   345  THR345     -0.2866
     96  CB        51.5250   70.6910   -7.9700 C.3   345  THR345      0.1770
     97  OG1       51.6010   71.2770   -6.6610 O.3   345  THR345     -0.2211
     98  CG2       51.8350   71.7570   -9.0130 C.3   345  THR345      0.0375
     99  N         57.4960   66.6270  -13.4040 N.3   363  ASP363     -0.1225
    100  CA        57.8200   67.5530  -12.3240 C.3   363  ASP363      0.1805
    101  C         57.4860   66.9510  -10.9540 C.2   363  ASP363      0.2598
    102  O         58.2180   67.1670   -9.9910 O.2   363  ASP363     -0.2718
    103  CB        57.0910   68.8910  -12.5040 C.3   363  ASP363      0.1424
    104  CG        57.5350   69.6400  -13.7530 C.2   363  ASP363      0.3668
    105  OD1       58.6160   69.3150  -14.2970 O.co2 363  ASP363     -0.2456
    106  OD2       56.8100   70.5640  -14.1840 O.co2 363  ASP363     -0.2456
    107  N         56.3910   66.1960  -10.8650 N.am  364  ALA364     -0.1966
    108  CA        56.0030   65.5700   -9.5950 C.3   364  ALA364      0.1728
    109  C         57.0730   64.5670   -9.1820 C.2   364  ALA364      0.2616
    110  O         57.3620   64.3880   -7.9940 O.2   364  ALA364     -0.2715
    111  CB        54.6570   64.8620   -9.7400 C.3   364  ALA364      0.0334
    112  N         57.6520   63.9030  -10.1760 N.am  365  GLN365     -0.1963
    113  CA        58.6980   62.9260   -9.9260 C.3   365  GLN365      0.1733
    114  C         59.8760   63.6440   -9.2730 C.2   365  GLN365      0.2617
    115  O         60.4010   63.2050   -8.2440 O.2   365  GLN365     -0.2715
    116  CB        59.1390   62.2850  -11.2410 C.3   365  GLN365      0.0408
    117  CG        60.2260   61.2370  -11.0910 C.3   365  GLN365      0.0908
    118  CD        60.7490   60.7690  -12.4300 C.2   365  GLN365      0.2608
    119  OE1       61.2730   61.5630  -13.2130 O.2   365  GLN365     -0.2717
    120  NE2       60.6110   59.4800  -12.7040 N.am  365  GLN365     -0.0878
    121  N         60.2830   64.7580   -9.8730 N.am  366  THR366     -0.1951
    122  CA        61.3990   65.5330   -9.3490 C.3   366  THR366      0.1897
    123  C         61.0980   66.0690   -7.9530 C.2   366  THR366      0.2313
    124  O         61.9210   65.9490   -7.0430 O.2   366  THR366     -0.2863
    125  CB        61.7270   66.7250  -10.2640 C.3   366  THR366      0.1794
    126  OG1       61.9230   66.2590  -11.6030 O.3   366  THR366     -0.2208
    127  CG2       62.9900   67.4250   -9.7870 C.3   366  THR366      0.0378
@<TRIPOS>BOND
     1   105   104   ar
     2   106   104   ar
     3   104   103    1
     4    99   100    1
     5   119   118    2
     6   120   118   am
     7   103   100    1
     8   118   117    1
     9   100   101    1
    10    39    38    2
    11    38    37    1
    12   126   125    1
    13   116   117    1
    14   116   113    1
    15   101   107   am
    16   101   102    2
    17   107   108    1
    18    95    94    2
    19    37    36    1
    20    37    40    1
    21   125   127    1
    22   125   122    1
    23   112   113    1
    24   112   109   am
    25   113   114    1
    26   121   122    1
    27   121   114   am
    28   111   108    1
    29    32    31    2
    30    42    40    1
    31   108   109    1
    32    94    93    1
    33    40    41    1
    34   122   123    1
    35   114   115    2
    36   109   110    2
    37    98    96    1
    38    31    30    1
    39    93    96    1
    40    93    92    1
    41    88    87    2
    42    96    97    1
    43   123   124    2
    44    83    82    2
    45    30    29    1
    46    30    33    1
    47    34    33    1
    48    33    35    1
    49    90    89    1
    50    23    22    2
    51    87    86    1
    52    86    89    1
    53    86    85    1
    54    82    85   am
    55    82    81    1
    56    91    89    1
    57    22    21    1
    58    84    81    1
    59    81    80    1
    60    71    70    2
    61    21    24    1
    62    21    20    1
    63    24    25    1
    64    65    67   ar
    65    65    63   ar
    66    80    70   am
    67    70    69    1
    68    67    66   ar
    69    63    62   ar
    70    60    59    2
    71    26    25    1
    72    26    27    1
    73    15    14    2
    74     1     2    1
    75    20    14   am
    76    79    78    1
    77    77    78   ar
    78    77    75   ar
    79     3     2    1
    80     3     4    2
    81     2     5    1
    82    78    76   ar
    83    14    13    1
    84    75    73   ar
    85    66    64   ar
    86    28    27    1
    87    62    64   ar
    88    62    61    1
    89    59    58    1
    90    55    54    2
    91    69    68    1
    92    69    72    1
    93     7     9   ar
    94     7     6   ar
    95     9    11   ar
    96    58    61    1
    97    58    57    1
    98    76    74   ar
    99    73    74   ar
   100    73    72    1
   101     5     6    1
   102     6     8   ar
   103    13    12    1
   104    13    16    1
   105    54    57   am
   106    54    53    1
   107    11    10   ar
   108    18    16    1
   109     8    10   ar
   110    16    17    1
   111    50    49    2
   112    56    53    1
   113    53    52    1
   114    48    49    1
   115    48    47    1
   116    49    51   am
   117    17    19    1
   118    46    45    2
   119    47    44    1
   120    45    44    1
   121    44    43    1
