@<TRIPOS>MOLECULE
tmp/1ytvC00.pdb
 121 116 0 0 0
SMALL
GASTEIGER

@<TRIPOS>ATOM
      1  N         49.3590   41.8840   62.5830 N.3   169  PHE169     -0.1241
      2  CA        50.7080   42.4380   62.6770 C.3   169  PHE169      0.1605
      3  C         50.6170   43.9640   62.7160 C.2   169  PHE169      0.2264
      4  O         49.9160   44.5690   61.9070 O.2   169  PHE169     -0.2867
      5  CB        51.5310   42.0080   61.4610 C.3   169  PHE169      0.0534
      6  CG        51.6770   40.5190   61.3230 C.ar  169  PHE169     -0.0203
      7  CD1       52.6190   39.8260   62.0820 C.ar  169  PHE169     -0.0042
      8  CD2       50.8590   39.8050   60.4490 C.ar  169  PHE169     -0.0042
      9  CE1       52.7470   38.4400   61.9740 C.ar  169  PHE169     -0.0003
     10  CE2       50.9740   38.4180   60.3290 C.ar  169  PHE169     -0.0003
     11  CZ        51.9200   37.7310   61.0930 C.ar  169  PHE169     -0.0000
     12  N         56.6200   41.8640   62.1280 N.3   178  ILE178     -0.1231
     13  CA        56.3100   40.4870   62.4860 C.3   178  ILE178      0.1692
     14  C         56.6450   40.1340   63.9300 C.2   178  ILE178      0.2591
     15  O         56.3260   39.0400   64.3920 O.2   178  ILE178     -0.2718
     16  CB        57.0350   39.4870   61.5530 C.3   178  ILE178      0.0266
     17  CG1       58.5160   39.3610   61.9380 C.3   178  ILE178      0.0019
     18  CG2       56.8970   39.9400   60.1110 C.3   178  ILE178      0.0020
     19  CD1       59.2860   40.6540   61.9090 C.3   178  ILE178      0.0001
     20  N         57.2920   41.0430   64.6480 N.am  179  LYS179     -0.1980
     21  CA        57.6250   40.7550   66.0360 C.3   179  LYS179      0.1596
     22  C         56.5790   41.3810   66.9450 C.2   179  LYS179      0.2287
     23  O         56.6670   41.2960   68.1690 O.2   179  LYS179     -0.2864
     24  CB        59.0170   41.2880   66.3870 C.3   179  LYS179      0.0298
     25  CG        59.1110   42.7930   66.4510 C.3   179  LYS179      0.0038
     26  CD        60.5000   43.2410   66.8560 C.3   179  LYS179      0.0206
     27  CE        60.5560   44.7520   66.9860 C.3   179  LYS179      0.1093
     28  NZ        61.9130   45.2250   67.3840 N.3   179  LYS179     -0.1314
     29  N         52.7630   40.9810   67.2410 N.3   181  VAL181     -0.1245
     30  CA        51.4920   40.3480   66.9130 C.3   181  VAL181      0.1561
     31  C         50.4770   40.7350   67.9810 C.2   181  VAL181      0.2260
     32  O         50.7910   40.7080   69.1720 O.2   181  VAL181     -0.2867
     33  CB        51.6280   38.8120   66.8930 C.3   181  VAL181      0.0252
     34  CG1       50.2900   38.1720   66.5640 C.3   181  VAL181      0.0019
     35  CG2       52.6910   38.3970   65.8800 C.3   181  VAL181      0.0019
     36  N         47.3060   39.2480   68.4900 N.3   183  VAL183     -0.1245
     37  CA        46.2350   38.2690   68.6290 C.3   183  VAL183      0.1561
     38  C         45.9510   37.8760   70.0720 C.2   183  VAL183      0.2260
     39  O         44.9930   37.1500   70.3440 O.2   183  VAL183     -0.2867
     40  CB        46.5360   36.9880   67.8150 C.3   183  VAL183      0.0252
     41  CG1       46.6520   37.3320   66.3420 C.3   183  VAL183      0.0019
     42  CG2       47.8130   36.3310   68.3160 C.3   183  VAL183      0.0019
     43  N         54.5480   37.1150   53.7500 N.3   334  PRO334     -0.2102
     44  CA        54.7050   35.6550   53.8090 C.3   334  PRO334      0.1504
     45  C         54.1690   34.9860   55.0710 C.2   334  PRO334      0.2575
     46  O         53.6950   33.8470   55.0260 O.2   334  PRO334     -0.2718
     47  CB        56.2140   35.4680   53.6500 C.3   334  PRO334      0.0282
     48  CG        56.5890   36.6020   52.7500 C.3   334  PRO334      0.0208
     49  CD        55.8240   37.7570   53.3840 C.3   334  PRO334      0.0893
     50  N         54.2400   35.7020   56.1870 N.am  335  GLN335     -0.1980
     51  CA        53.7910   35.1940   57.4780 C.3   335  GLN335      0.1601
     52  C         52.2790   35.0320   57.6000 C.2   335  GLN335      0.2287
     53  O         51.7920   34.4920   58.5990 O.2   335  GLN335     -0.2864
     54  CB        54.2820   36.1120   58.6060 C.3   335  GLN335      0.0394
     55  CG        55.7880   36.0600   58.8840 C.3   335  GLN335      0.0908
     56  CD        56.6380   36.8130   57.8650 C.2   335  GLN335      0.2608
     57  OE1       57.8670   36.6980   57.8670 O.2   335  GLN335     -0.2717
     58  NE2       55.9950   37.5900   57.0000 N.am  335  GLN335     -0.0878
     59  N         50.3000   32.9920   56.0960 N.3   337  SER337     -0.1202
     60  CA        49.9250   31.5760   56.1690 C.3   337  SER337      0.2020
     61  C         50.0210   31.0580   57.6060 C.2   337  SER337      0.2619
     62  O         49.1160   30.3760   58.0980 O.2   337  SER337     -0.2717
     63  CB        50.8260   30.7260   55.2670 C.3   337  SER337      0.2103
     64  OG        50.5980   31.0290   53.9030 O.3   337  SER337     -0.2182
     65  N         51.1210   31.3900   58.2740 N.am  338  ALA338     -0.1965
     66  CA        51.3440   30.9620   59.6570 C.3   338  ALA338      0.1728
     67  C         50.3120   31.5930   60.5770 C.2   338  ALA338      0.2616
     68  O         49.7840   30.9390   61.4780 O.2   338  ALA338     -0.2715
     69  CB        52.7620   31.3540   60.1060 C.3   338  ALA338      0.0334
     70  N         50.0430   32.8760   60.3450 N.am  339  PHE339     -0.1974
     71  CA        49.0670   33.6220   61.1310 C.3   339  PHE339      0.1639
     72  C         47.7020   32.9510   61.0680 C.2   339  PHE339      0.2290
     73  O         47.0820   32.6940   62.0930 O.2   339  PHE339     -0.2864
     74  CB        48.9370   35.0510   60.6000 C.3   339  PHE339      0.0560
     75  CG        47.6740   35.7490   61.0330 C.ar  339  PHE339     -0.0200
     76  CD1       47.5270   36.2220   62.3310 C.ar  339  PHE339     -0.0042
     77  CD2       46.6270   35.9370   60.1320 C.ar  339  PHE339     -0.0042
     78  CE1       46.3550   36.8740   62.7270 C.ar  339  PHE339     -0.0003
     79  CE2       45.4530   36.5860   60.5200 C.ar  339  PHE339     -0.0003
     80  CZ        45.3200   37.0550   61.8160 C.ar  339  PHE339     -0.0000
     81  N         47.6720   29.5320   62.7990 N.3   342  ALA342     -0.1231
     82  CA        47.7420   29.7450   64.2460 C.3   342  ALA342      0.1694
     83  C         46.4130   30.1790   64.8520 C.2   342  ALA342      0.2591
     84  O         45.9900   29.6590   65.8830 O.2   342  ALA342     -0.2718
     85  CB        48.8150   30.7780   64.5640 C.3   342  ALA342      0.0304
     86  N         45.7510   31.1390   64.2210 N.am  343  VAL343     -0.1980
     87  CA        44.4800   31.6040   64.7440 C.3   343  VAL343      0.1595
     88  C         43.3820   30.5720   64.5160 C.2   343  VAL343      0.2287
     89  O         42.4570   30.4680   65.3160 O.2   343  VAL343     -0.2864
     90  CB        44.0860   32.9470   64.1110 C.3   343  VAL343      0.0276
     91  CG1       42.7290   33.4000   64.6390 C.3   343  VAL343      0.0022
     92  CG2       45.1520   33.9890   64.4350 C.3   343  VAL343      0.0022
     93  N         49.5860   31.0100   72.4240 N.3   363  ASP363     -0.1225
     94  CA        50.2770   30.1350   71.4820 C.3   363  ASP363      0.1805
     95  C         50.2000   30.6950   70.0570 C.2   363  ASP363      0.2598
     96  O         51.1750   30.6300   69.3080 O.2   363  ASP363     -0.2718
     97  CB        49.6850   28.7210   71.4910 C.3   363  ASP363      0.1424
     98  CG        49.8660   28.0100   72.8250 C.2   363  ASP363      0.3668
     99  OD1       50.6080   28.5200   73.6860 O.co2 363  ASP363     -0.2456
    100  OD2       49.2680   26.9310   72.9960 O.co2 363  ASP363     -0.2456
    101  N         49.0410   31.2330   69.6830 N.am  364  ALA364     -0.1966
    102  CA        48.8670   31.7950   68.3470 C.3   364  ALA364      0.1728
    103  C         49.7730   33.0040   68.1680 C.2   364  ALA364      0.2616
    104  O         50.3140   33.2400   67.0840 O.2   364  ALA364     -0.2715
    105  CB        47.4110   32.1950   68.1230 C.3   364  ALA364      0.0334
    106  N         49.9330   33.7850   69.2300 N.am  365  GLN365     -0.1963
    107  CA        50.7980   34.9540   69.1590 C.3   365  GLN365      0.1733
    108  C         52.2060   34.4890   68.8170 C.2   365  GLN365      0.2617
    109  O         52.8780   35.0800   67.9700 O.2   365  GLN365     -0.2715
    110  CB        50.8270   35.6960   70.4960 C.3   365  GLN365      0.0408
    111  CG        51.5670   37.0210   70.4170 C.3   365  GLN365      0.0908
    112  CD        51.7510   37.6740   71.7700 C.2   365  GLN365      0.2608
    113  OE1       51.0880   37.3170   72.7390 O.2   365  GLN365     -0.2717
    114  NE2       52.6500   38.6440   71.8380 N.am  365  GLN365     -0.0878
    115  N         52.6470   33.4200   69.4770 N.am  366  THR366     -0.1951
    116  CA        53.9870   32.8730   69.2530 C.3   366  THR366      0.1897
    117  C         54.1500   32.1970   67.8930 C.2   366  THR366      0.2313
    118  O         55.1760   32.3610   67.2300 O.2   366  THR366     -0.2863
    119  CB        54.3500   31.8520   70.3490 C.3   366  THR366      0.1794
    120  OG1       54.2940   32.4910   71.6320 O.3   366  THR366     -0.2208
    121  CG2       55.7530   31.3090   70.1240 C.3   366  THR366      0.0378
@<TRIPOS>BOND
     1    48    49    1
     2    48    47    1
     3    49    43    1
     4    47    44    1
     5    43    44    1
     6    44    45    1
     7    64    63    1
     8    46    45    2
     9    45    50   am
    10    63    60    1
    11    59    60    1
    12    60    61    1
    13    50    51    1
    14    58    56   am
    15    51    52    1
    16    51    54    1
    17    52    53    2
    18    61    62    2
    19    61    65   am
    20    56    57    2
    21    56    55    1
    22    65    66    1
    23    54    55    1
    24    66    69    1
    25    66    67    1
    26    18    16    1
    27    77    79   ar
    28    77    75   ar
    29    10     8   ar
    30    10    11   ar
    31    70    67   am
    32    70    71    1
    33     8     6   ar
    34    79    80   ar
    35    67    68    2
    36    74    75    1
    37    74    71    1
    38    75    76   ar
    39    72    71    1
    40    72    73    2
    41    11     9   ar
    42     6     5    1
    43     6     7   ar
    44     5     2    1
    45    16    17    1
    46    16    13    1
    47    80    78   ar
    48     4     3    2
    49    19    17    1
    50     9     7   ar
    51    12    13    1
    52    76    78   ar
    53    13    14    1
    54     1     2    1
    55     2     3    1
    56    81    82    1
    57    14    15    2
    58    14    20   am
    59    90    92    1
    60    90    91    1
    61    90    87    1
    62    86    87    1
    63    86    83   am
    64    82    85    1
    65    82    83    1
    66    88    87    1
    67    88    89    2
    68    20    21    1
    69    83    84    2
    70    35    33    1
    71    21    24    1
    72    21    22    1
    73    41    40    1
    74    24    25    1
    75    25    26    1
    76    34    33    1
    77    26    27    1
    78    33    30    1
    79    30    29    1
    80    30    31    1
    81    22    23    2
    82    27    28    1
    83   104   103    2
    84   118   117    2
    85    40    42    1
    86    40    37    1
    87   117   116    1
    88   109   108    2
    89    31    32    2
    90   105   102    1
    91   103   102    1
    92   103   106   am
    93   102   101    1
    94    36    37    1
    95    37    38    1
    96   108   107    1
    97   108   115   am
    98   107   106    1
    99   107   110    1
   100   116   115    1
   101   116   119    1
   102    96    95    2
   103   101    95   am
   104    95    94    1
   105    38    39    2
   106   121   119    1
   107   119   120    1
   108   111   110    1
   109   111   112    1
   110    94    97    1
   111    94    93    1
   112    97    98    1
   113   112   114   am
   114   112   113    2
   115    98   100   ar
   116    98    99   ar
