@<TRIPOS>MOLECULE
tmp/1ytzC00.pdb
 88 82 0 0 0
SMALL
GASTEIGER

@<TRIPOS>ATOM
      1  N        105.7910   62.0170   56.8030 N.3    26  PHE26      -0.1241
      2  CA       106.7810   61.3590   55.9660 C.3    26  PHE26       0.1605
      3  C        108.0660   62.1790   56.0470 C.2    26  PHE26       0.2264
      4  O        109.1530   61.6320   56.3030 O.2    26  PHE26      -0.2867
      5  CB       106.3190   61.3190   54.5200 C.3    26  PHE26       0.0534
      6  CG       105.6140   60.0700   54.1480 C.ar   26  PHE26      -0.0203
      7  CD1      104.3020   59.8610   54.5270 C.ar   26  PHE26      -0.0042
      8  CD2      106.2530   59.1140   53.3780 C.ar   26  PHE26      -0.0042
      9  CE1      103.6390   58.7260   54.1370 C.ar   26  PHE26      -0.0003
     10  CE2      105.5990   57.9770   52.9850 C.ar   26  PHE26      -0.0003
     11  CZ       104.2880   57.7800   53.3610 C.ar   26  PHE26      -0.0000
     12  N        111.7720   58.2590   53.4240 N.3    39  LEU39      -0.1245
     13  CA       110.7580   57.3210   52.9760 C.3    39  LEU39       0.1561
     14  C        110.9860   56.0040   53.6860 C.2    39  LEU39       0.2260
     15  O        110.0570   55.4660   54.3000 O.2    39  LEU39      -0.2867
     16  CB       110.8120   57.1140   51.4570 C.3    39  LEU39       0.0270
     17  CG       109.8800   56.0120   50.9110 C.3    39  LEU39       0.0019
     18  CD1      108.4440   56.3180   51.3020 C.3    39  LEU39       0.0001
     19  CD2      110.0120   55.8900   49.3970 C.3    39  LEU39       0.0001
     20  N        108.2480   53.6420   55.6700 N.3    43  MET43      -0.1245
     21  CA       107.8850   52.3670   55.0900 C.3    43  MET43       0.1570
     22  C        107.9760   51.2750   56.1420 C.2    43  MET43       0.2261
     23  O        107.1140   50.4140   56.2570 O.2    43  MET43      -0.2867
     24  CB       108.8560   52.0700   53.9460 C.3    43  MET43       0.0387
     25  CG       108.5820   52.9210   52.7050 C.3    43  MET43       0.0595
     26  SD       108.3550   51.9150   51.2330 S.3    43  MET43      -0.1393
     27  CE       106.6260   51.4930   51.4920 C.3    43  MET43       0.0692
     28  N        105.3550   51.3420   58.4820 N.3    46  LEU46      -0.1231
     29  CA       104.1870   50.7840   57.8090 C.3    46  LEU46       0.1693
     30  C        104.3370   49.2840   57.6460 C.2    46  LEU46       0.2593
     31  O        103.5030   48.6100   57.0550 O.2    46  LEU46      -0.2718
     32  CB       103.9940   51.4270   56.4380 C.3    46  LEU46       0.0284
     33  CG       103.6740   52.9080   56.4500 C.3    46  LEU46       0.0019
     34  CD1      103.2040   53.2860   55.0560 C.3    46  LEU46       0.0001
     35  CD2      102.6010   53.2340   57.4910 C.3    46  LEU46       0.0001
     36  N        105.4340   48.7640   58.1510 N.am   47  GLY47      -0.1942
     37  CA       105.5730   47.3430   58.0720 C.3    47  GLY47       0.2014
     38  C        106.2080   46.7850   56.8380 C.2    47  GLY47       0.2638
     39  O        105.8620   45.6870   56.4340 O.2    47  GLY47      -0.2714
     40  N        107.1320   47.5170   56.2320 N.am   48  GLN48      -0.1977
     41  CA       107.8280   46.9870   55.0660 C.3    48  GLN48       0.1601
     42  C        109.3190   47.0220   55.3300 C.2    48  GLN48       0.2287
     43  O        109.7600   47.3760   56.4260 O.2    48  GLN48      -0.2864
     44  CB       107.5130   47.8110   53.8250 C.3    48  GLN48       0.0394
     45  CG       106.0430   47.8940   53.5500 C.3    48  GLN48       0.0908
     46  CD       105.4270   46.5440   53.2400 C.2    48  GLN48       0.2608
     47  OE1      104.2160   46.3760   53.3620 O.2    48  GLN48      -0.2717
     48  NE2      106.2520   45.5800   52.8190 N.am   48  GLN48      -0.0878
     49  N        111.9030   47.8740   52.3810 N.3    50  PRO50      -0.2116
     50  CA       112.4100   48.0880   51.0280 C.3    50  PRO50       0.1372
     51  C        113.9250   48.1880   50.9520 C.2    50  PRO50       0.2244
     52  O        114.5910   48.4350   51.9600 O.2    50  PRO50      -0.2868
     53  CB       111.7170   49.3810   50.6130 C.3    50  PRO50       0.0268
     54  CG       111.6160   50.1110   51.8850 C.3    50  PRO50       0.0207
     55  CD       111.1660   49.0580   52.8520 C.3    50  PRO50       0.0892
     56  N        110.2480   53.6080   43.7740 N.3    58  ILE58      -0.1245
     57  CA       109.0220   54.1210   44.3740 C.3    58  ILE58       0.1561
     58  C        109.0370   55.6470   44.4120 C.2    58  ILE58       0.2260
     59  O        107.9830   56.2880   44.4140 O.2    58  ILE58      -0.2867
     60  CB       108.8600   53.5950   45.8010 C.3    58  ILE58       0.0252
     61  CG1      108.5980   52.0920   45.7510 C.3    58  ILE58       0.0019
     62  CG2      107.7560   54.3570   46.5210 C.3    58  ILE58       0.0019
     63  CD1      108.3830   51.4680   47.0960 C.3    58  ILE58       0.0001
     64  N        100.8960   60.6030   43.4590 N.3    78  MET78      -0.1230
     65  CA       101.0720   59.2400   43.9440 C.3    78  MET78       0.1702
     66  C         99.8220   58.6910   44.6530 C.2    78  MET78       0.2592
     67  O         99.3380   57.6050   44.3620 O.2    78  MET78      -0.2718
     68  CB       102.2490   59.2470   44.9100 C.3    78  MET78       0.0401
     69  CG       102.5350   57.8580   45.4720 C.3    78  MET78       0.0596
     70  SD       103.7260   57.8990   46.8110 S.3    78  MET78      -0.1393
     71  CE       105.0490   57.0400   45.9530 C.3    78  MET78       0.0692
     72  N         99.3070   59.4630   45.6080 N.am   79  MET79      -0.1979
     73  CA        98.1360   59.0530   46.3460 C.3    79  MET79       0.1605
     74  C         96.9990   58.8060   45.3780 C.2    79  MET79       0.2287
     75  O         96.2770   57.8210   45.4640 O.2    79  MET79      -0.2864
     76  CB        97.7570   60.1770   47.3130 C.3    79  MET79       0.0413
     77  CG        98.8200   60.4130   48.3890 C.3    79  MET79       0.0598
     78  SD        99.1410   58.9410   49.3680 S.3    79  MET79      -0.1393
     79  CE       100.6370   58.4070   48.5230 C.3    79  MET79       0.0692
     80  N         97.2040   55.6010   43.3890 N.3    82  GLN82      -0.1245
     81  CA        96.8540   54.5450   44.3180 C.3    82  GLN82       0.1566
     82  C         95.3590   54.5290   44.5400 C.2    82  GLN82       0.2260
     83  O         94.7110   53.5200   44.3150 O.2    82  GLN82      -0.2867
     84  CB        97.5620   54.7450   45.6450 C.3    82  GLN82       0.0367
     85  CG        97.6070   53.4770   46.4410 C.3    82  GLN82       0.0905
     86  CD        98.2430   52.3460   45.6600 C.2    82  GLN82       0.2608
     87  OE1       97.7110   51.2430   45.6230 O.2    82  GLN82      -0.2717
     88  NE2       99.3920   52.6100   45.0420 N.am   82  GLN82      -0.0878
@<TRIPOS>BOND
     1    80    81    1
     2    64    65    1
     3    56    57    1
     4    65    66    1
     5    65    68    1
     6    83    82    2
     7    81    82    1
     8    81    84    1
     9    67    66    2
    10    57    58    1
    11    57    60    1
    12    58    59    2
    13    66    72   am
    14    68    69    1
    15    88    86   am
    16    74    75    2
    17    74    73    1
    18    69    70    1
    19    72    73    1
    20    87    86    2
    21    84    85    1
    22    86    85    1
    23    61    60    1
    24    61    63    1
    25    60    62    1
    26    71    70    1
    27    73    76    1
    28    76    77    1
    29    77    78    1
    30    79    78    1
    31    19    17    1
    32    53    50    1
    33    53    54    1
    34    17    18    1
    35    17    16    1
    36    51    50    1
    37    51    52    2
    38    50    49    1
    39    26    27    1
    40    26    25    1
    41    16    13    1
    42    54    55    1
    43    49    55    1
    44    25    24    1
    45    48    46   am
    46    13    12    1
    47    13    14    1
    48    10    11   ar
    49    10     8   ar
    50    46    47    2
    51    46    45    1
    52    11     9   ar
    53     8     6   ar
    54    45    44    1
    55    14    15    2
    56    44    41    1
    57    24    21    1
    58     9     7   ar
    59     6     5    1
    60     6     7   ar
    61     5     2    1
    62    34    33    1
    63    41    42    1
    64    41    40    1
    65    21    20    1
    66    21    22    1
    67    42    43    2
    68     2     3    1
    69     2     1    1
    70     3     4    2
    71    22    23    2
    72    40    38   am
    73    39    38    2
    74    32    33    1
    75    32    29    1
    76    33    35    1
    77    38    37    1
    78    31    30    2
    79    30    29    1
    80    30    36   am
    81    29    28    1
    82    37    36    1
