@<TRIPOS>MOLECULE
tmp/1yucB00.pdb
 153 145 0 0 0
SMALL
GASTEIGER

@<TRIPOS>ATOM
      1  N         28.3400   -4.4380   13.3350 N.3    55  PHE55      -0.1241
      2  CA        27.4090   -3.3210   13.1740 C.3    55  PHE55       0.1605
      3  C         26.1690   -3.8020   12.4290 C.2    55  PHE55       0.2264
      4  O         25.0390   -3.4350   12.7650 O.2    55  PHE55      -0.2867
      5  CB        28.0400   -2.1730   12.3820 C.3    55  PHE55       0.0534
      6  CG        28.8390   -1.2230   13.2260 C.ar   55  PHE55      -0.0203
      7  CD1       30.1900   -1.4570   13.4780 C.ar   55  PHE55      -0.0042
      8  CD2       28.2340   -0.0940   13.7800 C.ar   55  PHE55      -0.0042
      9  CE1       30.9320   -0.5760   14.2680 C.ar   55  PHE55      -0.0003
     10  CE2       28.9650    0.7920   14.5720 C.ar   55  PHE55      -0.0003
     11  CZ        30.3210    0.5510   14.8160 C.ar   55  PHE55      -0.0000
     12  N         23.9730   -5.7240   14.7320 N.3    58  VAL58      -0.1231
     13  CA        23.2160   -4.8300   15.6020 C.3    58  VAL58       0.1692
     14  C         22.0190   -4.2420   14.8560 C.2    58  VAL58       0.2591
     15  O         20.9390   -4.0920   15.4330 O.2    58  VAL58      -0.2718
     16  CB        24.0950   -3.6740   16.1330 C.3    58  VAL58       0.0266
     17  CG1       23.2260   -2.6590   16.8690 C.3    58  VAL58       0.0020
     18  CG2       25.1750   -4.2260   17.0650 C.3    58  VAL58       0.0020
     19  N         22.2070   -3.9120   13.5780 N.am   59  GLU59      -0.1979
     20  CA        21.1160   -3.3590   12.7750 C.3    59  GLU59       0.1602
     21  C         20.0140   -4.3970   12.6170 C.2    59  GLU59       0.2287
     22  O         18.8260   -4.0680   12.6590 O.2    59  GLU59      -0.2864
     23  CB        21.6140   -2.9310   11.3930 C.3    59  GLU59       0.0415
     24  CG        22.6320   -1.8060   11.4200 C.3    59  GLU59       0.1163
     25  CD        23.0100   -1.3320   10.0270 C.2    59  GLU59       0.3649
     26  OE1       22.1440   -0.7490    9.3430 O.co2  59  GLU59      -0.2457
     27  OE2       24.1690   -1.5450    9.6130 O.co2  59  GLU59      -0.2457
     28  N         17.9960   -4.6360   15.8620 N.3    62  ARG62      -0.1245
     29  CA        17.1370   -3.4710   16.0620 C.3    62  ARG62       0.1563
     30  C         15.8890   -3.4320   15.1900 C.2    62  ARG62       0.2260
     31  O         14.9240   -2.7370   15.5160 O.2    62  ARG62      -0.2867
     32  CB        17.9270   -2.1860   15.8230 C.3    62  ARG62       0.0307
     33  CG        19.1310   -2.0100   16.7160 C.3    62  ARG62       0.0489
     34  CD        19.7380   -0.6510   16.4690 C.3    62  ARG62       0.2205
     35  NE        18.7750    0.4060   16.7590 N.pl3  62  ARG62      -0.0865
     36  CZ        18.8690    1.6490   16.2980 C.cat  62  ARG62       0.5346
     37  NH1       19.8860    1.9920   15.5160 N.pl3  62  ARG62       0.1354
     38  NH2       17.9480    2.5460   16.6200 N.pl3  62  ARG62       0.1354
     39  N         12.8500   -7.3290   19.7560 N.3    67  PHE67      -0.1241
     40  CA        13.9860   -6.6490   20.3550 C.3    67  PHE67       0.1605
     41  C         13.6440   -5.2410   20.8230 C.2    67  PHE67       0.2264
     42  O         14.1240   -4.7960   21.8650 O.2    67  PHE67      -0.2867
     43  CB        15.1460   -6.5950   19.3620 C.3    67  PHE67       0.0534
     44  CG        16.4790   -6.3790   20.0120 C.ar   67  PHE67      -0.0203
     45  CD1       17.0580   -7.3840   20.7840 C.ar   67  PHE67      -0.0042
     46  CD2       17.1450   -5.1700   19.8740 C.ar   67  PHE67      -0.0042
     47  CE1       18.2900   -7.1850   21.4150 C.ar   67  PHE67      -0.0003
     48  CE2       18.3750   -4.9590   20.4980 C.ar   67  PHE67      -0.0003
     49  CZ        18.9460   -5.9710   21.2700 C.ar   67  PHE67      -0.0000
     50  N         16.6660   -0.2880   26.4300 N.3    72  VAL72      -0.1231
     51  CA        18.0540   -0.2710   25.9920 C.3    72  VAL72       0.1692
     52  C         18.9950   -1.0940   26.8600 C.2    72  VAL72       0.2592
     53  O         19.8700   -1.7790   26.3360 O.2    72  VAL72      -0.2718
     54  CB        18.5890    1.1690   25.9010 C.3    72  VAL72       0.0266
     55  CG1       20.0050    1.1660   25.3420 C.3    72  VAL72       0.0020
     56  CG2       17.6820    1.9930   25.0110 C.3    72  VAL72       0.0020
     57  N         18.8240   -1.0430   28.1780 N.am   73  ASP73      -0.1974
     58  CA        19.7020   -1.8170   29.0520 C.3    73  ASP73       0.1709
     59  C         19.5550   -3.3200   28.8260 C.2    73  ASP73       0.2293
     60  O         20.5390   -4.0560   28.9070 O.2    73  ASP73      -0.2864
     61  CB        19.4510   -1.4800   30.5210 C.3    73  ASP73       0.1436
     62  CG        20.0070   -0.1240   30.9100 C.2    73  ASP73       0.3671
     63  OD1       21.1400    0.2020   30.4930 O.co2  73  ASP73      -0.2456
     64  OD2       19.3180    0.6110   31.6460 O.co2  73  ASP73      -0.2456
     65  N         18.5730   -4.6490   25.9720 N.3    75  GLN75      -0.1231
     66  CA        19.1110   -4.8640   24.6290 C.3    75  GLN75       0.1698
     67  C         20.6210   -5.0410   24.7080 C.2    75  GLN75       0.2592
     68  O         21.1890   -5.9230   24.0700 O.2    75  GLN75      -0.2718
     69  CB        18.7800   -3.6770   23.7210 C.3    75  GLN75       0.0381
     70  CG        17.2980   -3.5480   23.3770 C.3    75  GLN75       0.0905
     71  CD        17.0040   -2.3570   22.4760 C.2    75  GLN75       0.2608
     72  OE1       17.9050   -1.5930   22.1180 O.2    75  GLN75      -0.2717
     73  NE2       15.7390   -2.1920   22.1100 N.am   75  GLN75      -0.0878
     74  N         21.2700   -4.1970   25.5030 N.am   76  MET76      -0.1979
     75  CA        22.7110   -4.2890   25.6550 C.3    76  MET76       0.1605
     76  C         23.1260   -5.5590   26.3890 C.2    76  MET76       0.2287
     77  O         24.1470   -6.1660   26.0640 O.2    76  MET76      -0.2864
     78  CB        23.2390   -3.0460   26.3680 C.3    76  MET76       0.0413
     79  CG        23.2480   -1.8290   25.4540 C.3    76  MET76       0.0598
     80  SD        23.9360   -0.3560   26.1970 S.3    76  MET76      -0.1393
     81  CE        25.6490   -0.7470   26.1470 C.3    76  MET76       0.0692
     82  N         22.9140   -8.4470   23.7200 N.3    79  LEU79      -0.1231
     83  CA        23.9590   -8.3970   22.7030 C.3    79  LEU79       0.1693
     84  C         25.3470   -8.6590   23.2760 C.2    79  LEU79       0.2591
     85  O         26.1750   -9.3070   22.6380 O.2    79  LEU79      -0.2718
     86  CB        23.9320   -7.0530   21.9690 C.3    79  LEU79       0.0284
     87  CG        22.7450   -6.8750   21.0160 C.3    79  LEU79       0.0019
     88  CD1       22.6330   -5.4250   20.5740 C.3    79  LEU79       0.0001
     89  CD2       22.9140   -7.8000   19.8170 C.3    79  LEU79       0.0001
     90  N         25.6070   -8.1730   24.4830 N.am   80  GLN80      -0.1979
     91  CA        26.9150   -8.3960   25.0790 C.3    80  GLN80       0.1601
     92  C         27.1230   -9.8620   25.4590 C.2    80  GLN80       0.2287
     93  O         28.2550  -10.3390   25.5410 O.2    80  GLN80      -0.2864
     94  CB        27.1090   -7.4630   26.2800 C.3    80  GLN80       0.0394
     95  CG        27.3450   -6.0310   25.8260 C.3    80  GLN80       0.0908
     96  CD        27.5430   -5.0390   26.9550 C.2    80  GLN80       0.2608
     97  OE1       28.0280   -3.9350   26.7250 O.2    80  GLN80      -0.2717
     98  NE2       27.1600   -5.4130   28.1680 N.am   80  GLN80      -0.0878
     99  N         38.8760    1.3740   19.4970 N.3   230  ASN230     -0.1225
    100  CA        37.9340    2.4840   19.4530 C.3   230  ASN230      0.1785
    101  C         36.8160    2.1290   18.4880 C.2   230  ASN230      0.2597
    102  O         36.3360    2.9680   17.7280 O.2   230  ASN230     -0.2718
    103  CB        38.6220    3.7790   19.0160 C.3   230  ASN230      0.1169
    104  CG        37.7410    4.9970   19.2210 C.2   230  ASN230      0.2627
    105  OD1       37.2530    5.2460   20.3280 O.2   230  ASN230     -0.2716
    106  ND2       37.5280    5.7640   18.1560 N.am  230  ASN230     -0.0877
    107  N         36.4180    0.8620   18.5250 N.am  231  ASN231     -0.1960
    108  CA        35.3540    0.3570   17.6760 C.3   231  ASN231      0.1819
    109  C         34.4370   -0.5510   18.4910 C.2   231  ASN231      0.2621
    110  O         34.6280   -0.7370   19.7000 O.2   231  ASN231     -0.2715
    111  CB        35.9360   -0.4240   16.4950 C.3   231  ASN231      0.1195
    112  CG        36.8590   -1.5440   16.9350 C.2   231  ASN231      0.2630
    113  OD1       36.6680   -2.1380   17.9930 O.2   231  ASN231     -0.2716
    114  ND2       37.8570   -1.8480   16.1170 N.am  231  ASN231     -0.0877
    115  N         33.4530   -1.1310   17.8180 N.am  232  LEU232     -0.1977
    116  CA        32.4900   -2.0020   18.4740 C.3   232  LEU232      0.1596
    117  C         33.0900   -3.3360   18.9010 C.2   232  LEU232      0.2287
    118  O         32.7570   -3.8630   19.9610 O.2   232  LEU232     -0.2864
    119  CB        31.2980   -2.2260   17.5440 C.3   232  LEU232      0.0297
    120  CG        30.0960   -2.9810   18.1070 C.3   232  LEU232      0.0022
    121  CD1       29.6830   -2.3970   19.4630 C.3   232  LEU232      0.0001
    122  CD2       28.9560   -2.8880   17.0990 C.3   232  LEU232      0.0001
    123  N         34.8140   -2.9850   22.2010 N.3   235  GLU235     -0.1231
    124  CA        33.8420   -2.6850   23.2440 C.3   235  GLU235      0.1699
    125  C         33.2020   -3.9640   23.7760 C.2   235  GLU235      0.2592
    126  O         32.9840   -4.1100   24.9810 O.2   235  GLU235     -0.2718
    127  CB        32.7600   -1.7600   22.6990 C.3   235  GLU235      0.0402
    128  CG        31.9510   -1.0730   23.7810 C.3   235  GLU235      0.1161
    129  CD        30.9610   -0.0830   23.2100 C.2   235  GLU235      0.3649
    130  OE1       29.8710   -0.5100   22.7810 O.co2 235  GLU235     -0.2457
    131  OE2       31.2830    1.1220   23.1790 O.co2 235  GLU235     -0.2457
    132  N         32.8920   -4.8920   22.8770 N.am  236  MET236     -0.1979
    133  CA        32.2860   -6.1530   23.2940 C.3   236  MET236      0.1605
    134  C         33.2480   -6.9700   24.1590 C.2   236  MET236      0.2287
    135  O         32.8310   -7.6220   25.1110 O.2   236  MET236     -0.2864
    136  CB        31.8550   -6.9620   22.0700 C.3   236  MET236      0.0413
    137  CG        30.7510   -6.2900   21.2700 C.3   236  MET236      0.0598
    138  SD        29.2540   -6.0370   22.2560 S.3   236  MET236     -0.1393
    139  CE        27.9840   -6.3710   21.0240 C.3   236  MET236      0.0692
    140  N         33.0160   -5.9480   27.6660 N.3   239  ALA239     -0.1231
    141  CA        31.7050   -6.0470   28.2920 C.3   239  ALA239      0.1694
    142  C         31.7670   -6.9190   29.5410 C.2   239  ALA239      0.2591
    143  O         32.7160   -7.6860   29.7300 O.2   239  ALA239     -0.2718
    144  CB        30.6940   -6.6210   27.3020 C.3   239  ALA239      0.0304
    145  N         30.7570   -6.7930   30.3940 N.am  240  LYS240     -0.1980
    146  CA        30.6870   -7.5840   31.6170 C.3   240  LYS240      0.1596
    147  C         29.3680   -8.3400   31.6740 C.2   240  LYS240      0.2287
    148  O         28.4540   -7.9560   30.9180 O.2   240  LYS240     -0.2864
    149  CB        30.8300   -6.6780   32.8460 C.3   240  LYS240      0.0298
    150  CG        30.0880   -5.3590   32.7490 C.3   240  LYS240      0.0038
    151  CD        30.3590   -4.4850   33.9710 C.3   240  LYS240      0.0206
    152  CE        30.0290   -3.0230   33.6920 C.3   240  LYS240      0.1093
    153  NZ        28.6260   -2.8440   33.2190 N.3   240  LYS240     -0.1314
@<TRIPOS>BOND
     1    26    25   ar
     2    27    25   ar
     3    25    24    1
     4    23    24    1
     5    23    20    1
     6     5     2    1
     7     5     6    1
     8     3     4    2
     9     3     2    1
    10    21    22    2
    11    21    20    1
    12    20    19    1
    13     2     1    1
    14     6     7   ar
    15     6     8   ar
    16     7     9   ar
    17    19    14   am
    18     8    10   ar
    19     9    11   ar
    20    10    11   ar
    21    12    13    1
    22    14    15    2
    23    14    13    1
    24    30    31    2
    25    30    29    1
    26    37    36    1
    27    13    16    1
    28    32    29    1
    29    32    33    1
    30    28    29    1
    31   114   112   am
    32    16    17    1
    33    16    18    1
    34    36    38    1
    35    36    35    2
    36    34    33    1
    37    34    35    1
    38   111   112    1
    39   111   108    1
    40   112   113    2
    41   122   120    1
    42   119   120    1
    43   119   116    1
    44   108   109    1
    45   108   107    1
    46   102   101    2
    47   115   116    1
    48   115   109   am
    49   120   121    1
    50   106   104   am
    51   116   117    1
    52   101   107   am
    53   101   100    1
    54   109   110    2
    55   117   118    2
    56   103   104    1
    57   103   100    1
    58   104   105    2
    59    43    44    1
    60    43    40    1
    61   100    99    1
    62    39    40    1
    63    89    87    1
    64    46    44   ar
    65    46    48   ar
    66    44    45   ar
    67    40    41    1
    68    48    49   ar
    69    88    87    1
    70    45    47   ar
    71    41    42    2
    72    87    86    1
    73   139   138    1
    74   137   136    1
    75   137   138    1
    76    49    47   ar
    77    86    83    1
    78   136   133    1
    79    73    71   am
    80    72    71    2
    81   123   124    1
    82    71    70    1
    83    85    84    2
    84   127   124    1
    85   127   128    1
    86    83    84    1
    87    83    82    1
    88   130   129   ar
    89   132   133    1
    90   132   125   am
    91   131   129   ar
    92   129   128    1
    93   124   125    1
    94    84    90   am
    95   133   134    1
    96    70    69    1
    97    69    66    1
    98   125   126    2
    99    68    67    2
   100   134   135    2
   101    90    91    1
   102    66    67    1
   103    66    65    1
   104    67    74   am
   105    56    54    1
   106    91    92    1
   107    91    94    1
   108    55    54    1
   109    79    80    1
   110    79    78    1
   111    92    93    2
   112    74    75    1
   113    75    78    1
   114    75    76    1
   115    95    94    1
   116    95    96    1
   117    54    51    1
   118    51    50    1
   119    51    52    1
   120    77    76    2
   121    81    80    1
   122    53    52    2
   123    97    96    2
   124    52    57   am
   125    96    98   am
   126   144   141    1
   127   140   141    1
   128    57    58    1
   129   141   142    1
   130    59    60    2
   131    59    58    1
   132    58    61    1
   133   142   143    2
   134   142   145   am
   135   145   146    1
   136    63    62   ar
   137    61    62    1
   138    62    64   ar
   139   148   147    2
   140   146   147    1
   141   146   149    1
   142   150   149    1
   143   150   151    1
   144   153   152    1
   145   152   151    1
