@<TRIPOS>MOLECULE
tmp/1yuhD00.pdb
 108 104 0 0 0
SMALL
GASTEIGER

@<TRIPOS>ATOM
      1  N         79.0770   61.0970  -14.1720 N.3    31  SER31      -0.1217
      2  CA        78.5240   62.4510  -14.2370 C.3    31  SER31       0.1889
      3  C         78.2080   63.0220  -12.8450 C.2    31  SER31       0.2288
      4  O         77.7870   64.1710  -12.7050 O.2    31  SER31      -0.2866
      5  CB        77.2060   62.5210  -15.0570 C.3    31  SER31       0.2089
      6  OG        75.9650   62.7870  -14.3690 O.3    31  SER31      -0.2183
      7  N         79.5400   63.5750   -8.6990 N.3    33  LEU33      -0.1245
      8  CA        80.7150   63.5260   -7.8240 C.3    33  LEU33       0.1561
      9  C         80.6500   62.5860   -6.6250 C.2    33  LEU33       0.2260
     10  O         79.5920   62.2630   -6.0970 O.2    33  LEU33      -0.2867
     11  CB        81.1010   64.9280   -7.2570 C.3    33  LEU33       0.0270
     12  CG        81.7730   66.0030   -8.1400 C.3    33  LEU33       0.0019
     13  CD1       82.9880   65.4190   -8.8630 C.3    33  LEU33       0.0001
     14  CD2       80.8100   66.4800   -9.2070 C.3    33  LEU33       0.0001
     15  N         82.1800   61.8160   -2.7620 N.3    35  HIS35      -0.1241
     16  CA        82.7780   62.3770   -1.5680 C.3    35  HIS35       0.1621
     17  C         82.9890   61.2830   -0.5470 C.2    35  HIS35       0.2264
     18  O         82.4260   60.1960   -0.6240 O.2    35  HIS35      -0.2867
     19  CB        81.8830   63.4360   -0.9210 C.3    35  HIS35       0.0745
     20  CG        82.0580   64.8700   -1.3950 C.ar   35  HIS35       0.0817
     21  ND1       81.8130   65.9890   -0.7100 N.ar   35  HIS35      -0.2268
     22  CD2       82.5270   65.2460   -2.6220 C.ar   35  HIS35       0.1154
     23  CE1       82.1110   67.0090   -1.4560 C.ar   35  HIS35       0.1986
     24  NE2       82.5390   66.5500   -2.5950 N.ar   35  HIS35      -0.2212
     25  N         84.6860   66.2010    6.3070 N.3    47  TRP47      -0.1241
     26  CA        84.9360   65.9560    4.8770 C.3    47  TRP47       0.1605
     27  C         86.3740   65.5110    4.6560 C.2    47  TRP47       0.2264
     28  O         87.2740   66.2330    5.0440 O.2    47  TRP47      -0.2867
     29  CB        84.7200   67.1960    4.0030 C.3    47  TRP47       0.0550
     30  CG        85.0360   66.9430    2.5150 C.ar   47  TRP47       0.0003
     31  CD1       84.4510   65.9050    1.8250 C.ar   47  TRP47       0.0946
     32  CD2       85.9220   67.6450    1.7210 C.ar   47  TRP47       0.0152
     33  NE1       84.9620   65.9400    0.6220 N.ar   47  TRP47      -0.2442
     34  CE2       85.8260   66.9530    0.5160 C.ar   47  TRP47       0.0810
     35  CE3       86.7750   68.7380    1.8170 C.ar   47  TRP47       0.0012
     36  CZ2       86.5680   67.3430   -0.5970 C.ar   47  TRP47       0.0191
     37  CZ3       87.5170   69.1310    0.7090 C.ar   47  TRP47       0.0001
     38  CH2       87.4220   68.4460   -0.4970 C.ar   47  TRP47       0.0015
     39  N         87.5960   64.4200   -2.2860 N.3    50  ARG50      -0.1245
     40  CA        86.6670   64.3180   -3.4170 C.3    50  ARG50       0.1563
     41  C         87.2330   63.6190   -4.6880 C.2    50  ARG50       0.2260
     42  O         88.3440   63.9190   -5.1560 O.2    50  ARG50      -0.2867
     43  CB        86.1830   65.7390   -3.7200 C.3    50  ARG50       0.0307
     44  CG        85.0820   65.8550   -4.7320 C.3    50  ARG50       0.0489
     45  CD        85.5890   65.7430   -6.1550 C.3    50  ARG50       0.2205
     46  NE        86.7070   66.6400   -6.3680 N.pl3  50  ARG50      -0.0865
     47  CZ        86.6970   67.5580   -7.3340 C.cat  50  ARG50       0.5346
     48  NH1       85.7300   67.6040   -8.2420 N.pl3  50  ARG50       0.1354
     49  NH2       87.7140   68.3980   -7.4540 N.pl3  50  ARG50       0.1354
     50  N         86.1490   62.5780   -8.6300 N.3    52  ASP52      -0.1239
     51  CA        85.3950   62.8060   -9.8460 C.3    52  ASP52       0.1674
     52  C         85.4920   61.5930  -10.7730 C.2    52  ASP52       0.2266
     53  O         86.5300   61.4170  -11.4030 O.2    52  ASP52      -0.2867
     54  CB        85.9860   64.0820  -10.4270 C.3    52  ASP52       0.1410
     55  CG        85.5190   64.5580  -11.7910 C.2    52  ASP52       0.3668
     56  OD1       86.0490   64.0980  -12.8090 O.co2  52  ASP52      -0.2456
     57  OD2       84.6470   65.4280  -11.8260 O.co2  52  ASP52      -0.2456
     58  N         89.8300   63.4890  -10.7220 N.3    57  VAL57      -0.1245
     59  CA        89.7960   64.8560  -10.1030 C.3    57  VAL57       0.1561
     60  C         89.4560   64.9740   -8.6070 C.2    57  VAL57       0.2260
     61  O         88.3260   64.8510   -8.1180 O.2    57  VAL57      -0.2867
     62  CB        88.8230   65.8450  -10.8940 C.3    57  VAL57       0.0252
     63  CG1       88.6430   67.2160  -10.2720 C.3    57  VAL57       0.0019
     64  CG2       89.5010   66.2440  -12.1660 C.3    57  VAL57       0.0019
     65  N         90.1150   67.0400   -5.2410 N.3    59  LYS59      -0.1245
     66  CA        90.2430   68.0160   -4.1580 C.3    59  LYS59       0.1561
     67  C         90.1550   67.3240   -2.7770 C.2    59  LYS59       0.2260
     68  O         89.1500   66.7460   -2.3210 O.2    59  LYS59      -0.2867
     69  CB        89.1500   69.0740   -4.3040 C.3    59  LYS59       0.0271
     70  CG        89.5260   69.9660   -5.4670 C.3    59  LYS59       0.0035
     71  CD        88.5480   71.0950   -5.8080 C.3    59  LYS59       0.0206
     72  CE        88.9050   71.8090   -7.1400 C.3    59  LYS59       0.1093
     73  NZ        88.1700   73.0590   -7.2540 N.3    59  LYS59      -0.1314
     74  N         77.7010   63.7510   -4.7690 N.3    99  TYR99      -0.1227
     75  CA        77.4620   65.1770   -5.0370 C.3    99  TYR99       0.1736
     76  C         77.1470   65.4930   -6.5230 C.2    99  TYR99       0.2595
     77  O         77.5760   64.7840   -7.4250 O.2    99  TYR99      -0.2718
     78  CB        78.7320   65.8700   -4.4650 C.3    99  TYR99       0.0548
     79  CG        79.2710   67.2160   -4.9360 C.ar   99  TYR99      -0.0200
     80  CD1       79.2310   67.6280   -6.2570 C.ar   99  TYR99      -0.0009
     81  CD2       79.9370   68.0230   -4.0200 C.ar   99  TYR99      -0.0009
     82  CE1       79.8510   68.8100   -6.6550 C.ar   99  TYR99       0.0417
     83  CE2       80.5640   69.2200   -4.3850 C.ar   99  TYR99       0.0417
     84  CZ        80.5110   69.6050   -5.7220 C.ar   99  TYR99       0.1957
     85  OH        81.0400   70.7980   -6.1680 O.3    99  TYR99      -0.2866
     86  N         76.4600   66.5890   -6.8440 N.am  100  ALA100     -0.1966
     87  CA        76.0700   66.8670   -8.2410 C.3   100  ALA100      0.1728
     88  C         76.5580   68.1490   -8.9440 C.2   100  ALA100      0.2616
     89  O         76.4990   68.2600  -10.1520 O.2   100  ALA100     -0.2715
     90  CB        74.5360   66.8340   -8.3310 C.3   100  ALA100      0.0334
     91  N         76.6680   69.1710   -8.0970 N.am  101  TYR101     -0.1960
     92  CA        77.3720   70.4470   -8.2420 C.3   101  TYR101      0.1771
     93  C         77.1530   70.9570   -6.8090 C.2   101  TYR101      0.2619
     94  O         76.0690   70.8030   -6.2390 O.2   101  TYR101     -0.2715
     95  CB        76.7900   71.4240   -9.3320 C.3   101  TYR101      0.0574
     96  CG        75.4500   72.1360   -9.2280 C.ar  101  TYR101     -0.0198
     97  CD1       75.1500   73.0810   -8.2230 C.ar  101  TYR101     -0.0009
     98  CD2       74.4990   71.8140  -10.1870 C.ar  101  TYR101     -0.0009
     99  CE1       73.8930   73.6940   -8.1790 C.ar  101  TYR101      0.0417
    100  CE2       73.2470   72.4270  -10.1470 C.ar  101  TYR101      0.0417
    101  CZ        72.9420   73.3540   -9.1510 C.ar  101  TYR101      0.1957
    102  OH        71.6730   73.9090   -9.1380 O.3   101  TYR101     -0.2866
    103  N         78.2170   71.4330   -6.1510 N.am  102  CYS102     -0.1968
    104  CA        78.3300   71.6420   -4.6840 C.3   102  CYS102      0.1712
    105  C         77.2990   71.3150   -3.6120 C.2   102  CYS102      0.2296
    106  O         76.2940   71.9560   -3.3210 O.2   102  CYS102     -0.2864
    107  CB        78.7640   73.0450   -4.4180 C.3   102  CYS102      0.0983
    108  SG        80.4810   73.4410   -4.8710 S.3   102  CYS102     -0.0798
@<TRIPOS>BOND
     1     5     6    1
     2     5     2    1
     3     2     1    1
     4     2     3    1
     5     3     4    2
     6    56    55   ar
     7    64    62    1
     8    57    55   ar
     9    55    54    1
    10    53    52    2
    11    62    63    1
    12    62    59    1
    13    52    51    1
    14    58    59    1
    15    54    51    1
    16    98   100   ar
    17    98    96   ar
    18    89    88    2
    19   100   101   ar
    20    59    60    1
    21    51    50    1
    22    95    96    1
    23    95    92    1
    24    96    97   ar
    25    14    12    1
    26   101   102    1
    27   101    99   ar
    28    88    87    1
    29    88    91   am
    30    13    12    1
    31     7     8    1
    32    60    61    2
    33    90    87    1
    34    92    91    1
    35    92    93    1
    36    48    47    1
    37    87    86    1
    38    97    99   ar
    39    12    11    1
    40     8    11    1
    41     8     9    1
    42    49    47    1
    43    77    76    2
    44    47    46    2
    45    73    72    1
    46    72    71    1
    47    86    76   am
    48    93    94    2
    49    93   103   am
    50    82    80   ar
    51    82    84   ar
    52     9    10    2
    53    76    75    1
    54    46    45    1
    55    80    79   ar
    56    85    84    1
    57    45    44    1
    58   103   104    1
    59    71    70    1
    60    84    83   ar
    61    70    69    1
    62    65    66    1
    63    42    41    2
    64    75    74    1
    65    75    78    1
    66    79    78    1
    67    79    81   ar
    68   108   107    1
    69    44    43    1
    70    41    40    1
    71   104   107    1
    72   104   105    1
    73    83    81   ar
    74    69    66    1
    75    66    67    1
    76    43    40    1
    77   105   106    2
    78    40    39    1
    79    67    68    2
    80    15    16    1
    81    22    24   ar
    82    22    20   ar
    83    24    23   ar
    84    16    19    1
    85    16    17    1
    86    23    21   ar
    87    20    19    1
    88    20    21   ar
    89    18    17    2
    90    36    38   ar
    91    36    34   ar
    92    38    37   ar
    93    34    33   ar
    94    34    32   ar
    95    33    31   ar
    96    37    35   ar
    97    32    35   ar
    98    32    30   ar
    99    31    30   ar
   100    30    29    1
   101    29    26    1
   102    27    26    1
   103    27    28    2
   104    26    25    1
