@<TRIPOS>MOLECULE
tmp/1yuhB00.pdb
 114 111 0 0 0
SMALL
GASTEIGER

@<TRIPOS>ATOM
      1  N         45.6030   19.9110   -9.2100 N.3    33  LEU33      -0.1245
      2  CA        46.6830   19.9970   -8.2630 C.3    33  LEU33       0.1561
      3  C         46.5120   19.1640   -6.9670 C.2    33  LEU33       0.2260
      4  O         45.4090   18.9370   -6.4530 O.2    33  LEU33      -0.2867
      5  CB        46.8100   21.4840   -8.0150 C.3    33  LEU33       0.0270
      6  CG        48.1320   22.1200   -7.6730 C.3    33  LEU33       0.0019
      7  CD1       49.1530   21.5760   -8.6250 C.3    33  LEU33       0.0001
      8  CD2       48.0810   23.6370   -7.8400 C.3    33  LEU33       0.0001
      9  N         47.6290   18.5810   -2.8200 N.3    35  HIS35      -0.1241
     10  CA        48.2100   18.9310   -1.5240 C.3    35  HIS35       0.1621
     11  C         48.4310   17.7990   -0.5310 C.2    35  HIS35       0.2264
     12  O         47.7770   16.7740   -0.5970 O.2    35  HIS35      -0.2867
     13  CB        47.3480   19.9370   -0.8040 C.3    35  HIS35       0.0745
     14  CG        47.5310   21.3490   -1.3240 C.ar   35  HIS35       0.0817
     15  ND1       46.7260   22.3620   -1.0830 N.ar   35  HIS35      -0.2268
     16  CD2       48.5750   21.8230   -2.0810 C.ar   35  HIS35       0.1154
     17  CE1       47.2370   23.4190   -1.6420 C.ar   35  HIS35       0.1986
     18  NE2       48.3420   23.0930   -2.2370 N.ar   35  HIS35      -0.2212
     19  N         50.1700   22.8600    6.0640 N.3    47  TRP47      -0.1241
     20  CA        50.3380   22.3730    4.7060 C.3    47  TRP47       0.1605
     21  C         51.8190   21.9240    4.5520 C.2    47  TRP47       0.2264
     22  O         52.7540   22.4800    5.1230 O.2    47  TRP47      -0.2867
     23  CB        49.8600   23.5270    3.7410 C.3    47  TRP47       0.0550
     24  CG        50.2750   23.3740    2.2600 C.ar   47  TRP47       0.0003
     25  CD1       49.6430   22.5170    1.4000 C.ar   47  TRP47       0.0946
     26  CD2       51.3580   23.9750    1.6840 C.ar   47  TRP47       0.0152
     27  NE1       50.3330   22.5500    0.3000 N.ar   47  TRP47      -0.2442
     28  CE2       51.3460   23.4040    0.4290 C.ar   47  TRP47       0.0810
     29  CE3       52.3350   24.8870    2.0460 C.ar   47  TRP47       0.0012
     30  CZ2       52.3180   23.7370   -0.5120 C.ar   47  TRP47       0.0191
     31  CZ3       53.3060   25.2100    1.1160 C.ar   47  TRP47       0.0001
     32  CH2       53.3070   24.6480   -0.1620 C.ar   47  TRP47       0.0015
     33  N         53.1230   20.4820   -2.3550 N.3    50  ARG50      -0.1245
     34  CA        52.1950   20.5980   -3.4890 C.3    50  ARG50       0.1563
     35  C         52.5460   19.8850   -4.7930 C.2    50  ARG50       0.2260
     36  O         53.4020   20.3780   -5.5060 O.2    50  ARG50      -0.2867
     37  CB        52.0090   22.1310   -3.6980 C.3    50  ARG50       0.0307
     38  CG        50.9720   22.7990   -4.6090 C.3    50  ARG50       0.0489
     39  CD        51.2320   22.6540   -6.1070 C.3    50  ARG50       0.2205
     40  NE        52.4030   23.3250   -6.6600 N.pl3  50  ARG50      -0.0865
     41  CZ        52.8560   23.0260   -7.8960 C.cat  50  ARG50       0.5346
     42  NH1       52.3240   22.0580   -8.6350 N.pl3  50  ARG50       0.1354
     43  NH2       53.8940   23.6810   -8.4270 N.pl3  50  ARG50       0.1354
     44  N         51.9420   18.6970   -8.7710 N.3    52  ASP52      -0.1239
     45  CA        51.1220   18.8590   -9.9480 C.3    52  ASP52       0.1674
     46  C         51.1090   17.5820  -10.7570 C.2    52  ASP52       0.2266
     47  O         52.0400   17.3380  -11.5210 O.2    52  ASP52      -0.2867
     48  CB        51.6360   19.9550  -10.8250 C.3    52  ASP52       0.1410
     49  CG        50.6610   20.4130  -11.9150 C.2    52  ASP52       0.3668
     50  OD1       50.0470   19.6020  -12.6370 O.co2  52  ASP52      -0.2456
     51  OD2       50.5410   21.6360  -12.0220 O.co2  52  ASP52      -0.2456
     52  N         52.7090   17.6710  -14.5670 N.3    55  ASN55      -0.1240
     53  CA        54.1090   18.0410  -14.7820 C.3    55  ASN55       0.1653
     54  C         55.0930   17.5840  -13.6820 C.2    55  ASN55       0.2266
     55  O         56.2860   17.8900  -13.6970 O.2    55  ASN55      -0.2867
     56  CB        54.1340   19.5810  -14.9330 C.3    55  ASN55       0.1155
     57  CG        53.8000   20.3280  -13.6280 C.2    55  ASN55       0.2627
     58  OD1       54.0180   19.8330  -12.5290 O.2    55  ASN55      -0.2716
     59  ND2       53.2570   21.5260  -13.5360 N.am   55  ASN55      -0.0877
     60  N         55.7490   22.8040   -5.0370 N.3    59  LYS59      -0.1245
     61  CA        56.0760   23.7850   -4.0200 C.3    59  LYS59       0.1561
     62  C         56.0810   23.0010   -2.6950 C.2    59  LYS59       0.2260
     63  O         55.2970   22.0660   -2.4700 O.2    59  LYS59      -0.2867
     64  CB        55.0320   24.8720   -3.8930 C.3    59  LYS59       0.0271
     65  CG        54.9970   25.9220   -4.9540 C.3    59  LYS59       0.0035
     66  CD        53.8700   26.9190   -4.7000 C.3    59  LYS59       0.0206
     67  CE        54.1630   28.1280   -5.6040 C.3    59  LYS59       0.1093
     68  NZ        53.0920   29.1120   -5.6480 N.3    59  LYS59      -0.1314
     69  N         43.0950   19.7900   -5.1790 N.3    99  TYR99      -0.1227
     70  CA        42.4420   21.0550   -5.4120 C.3    99  TYR99       0.1736
     71  C         42.6150   21.7430   -6.7900 C.2    99  TYR99       0.2595
     72  O         43.6910   21.6840   -7.3600 O.2    99  TYR99      -0.2718
     73  CB        42.8890   21.9090   -4.1940 C.3    99  TYR99       0.0548
     74  CG        43.9720   22.9080   -4.4760 C.ar   99  TYR99      -0.0200
     75  CD1       43.5360   24.0830   -5.0270 C.ar   99  TYR99      -0.0009
     76  CD2       45.3240   22.6140   -4.3600 C.ar   99  TYR99      -0.0009
     77  CE1       44.4350   24.9680   -5.5070 C.ar   99  TYR99       0.0417
     78  CE2       46.2380   23.5320   -4.8560 C.ar   99  TYR99       0.0417
     79  CZ        45.7640   24.7050   -5.4440 C.ar   99  TYR99       0.1957
     80  OH        46.5570   25.6210   -6.0940 O.3    99  TYR99      -0.2866
     81  N         41.5970   22.4340   -7.3550 N.am  100  ALA100     -0.1966
     82  CA        41.6700   23.1850   -8.6400 C.3   100  ALA100      0.1728
     83  C         42.4270   24.4910   -8.5590 C.2   100  ALA100      0.2616
     84  O         43.5840   24.3850   -8.2310 O.2   100  ALA100     -0.2715
     85  CB        40.3030   23.5620   -9.1800 C.3   100  ALA100      0.0334
     86  N         41.9740   25.7200   -8.8050 N.am  101  TYR101     -0.1960
     87  CA        42.8140   26.8740   -8.5490 C.3   101  TYR101      0.1771
     88  C         42.5650   27.3370   -7.0890 C.2   101  TYR101      0.2620
     89  O         41.4110   27.4010   -6.6290 O.2   101  TYR101     -0.2715
     90  CB        42.4800   27.9770   -9.5210 C.3   101  TYR101      0.0574
     91  CG        41.5830   29.1280   -9.0440 C.ar  101  TYR101     -0.0198
     92  CD1       42.1500   30.2340   -8.4150 C.ar  101  TYR101     -0.0009
     93  CD2       40.2140   29.0950   -9.2690 C.ar  101  TYR101     -0.0009
     94  CE1       41.3590   31.3070   -8.0160 C.ar  101  TYR101      0.0417
     95  CE2       39.4150   30.1610   -8.8760 C.ar  101  TYR101      0.0417
     96  CZ        39.9890   31.2670   -8.2530 C.ar  101  TYR101      0.1957
     97  OH        39.2110   32.3490   -7.8930 O.3   101  TYR101     -0.2866
     98  N         43.6740   27.6530   -6.3780 N.am  102  CYS102     -0.1954
     99  CA        43.7680   28.0560   -4.9780 C.3   102  CYS102      0.1843
    100  C         42.7660   27.6380   -3.9050 C.2   102  CYS102      0.2625
    101  O         41.7990   28.3120   -3.5500 O.2   102  CYS102     -0.2714
    102  CB        43.8970   29.5620   -4.9210 C.3   102  CYS102      0.0997
    103  SG        45.2220   29.9670   -3.7390 S.3   102  CYS102     -0.0797
    104  N         43.0630   26.4810   -3.3280 N.am  103  ARG103     -0.1977
    105  CA        42.3060   25.8840   -2.2130 C.3   103  ARG103      0.1597
    106  C         43.2200   24.9810   -1.3680 C.2   103  ARG103      0.2287
    107  O         44.2320   24.5410   -1.9490 O.2   103  ARG103     -0.2864
    108  CB        41.1690   24.9620   -2.6240 C.3   103  ARG103      0.0334
    109  CG        40.5950   25.0710   -4.0100 C.3   103  ARG103      0.0492
    110  CD        39.4900   24.0550   -4.2760 C.3   103  ARG103      0.2205
    111  NE        38.3000   24.2780   -3.4760 N.pl3 103  ARG103     -0.0865
    112  CZ        37.6620   25.4340   -3.4710 C.cat 103  ARG103      0.5346
    113  NH1       38.0180   26.4410   -4.2820 N.pl3 103  ARG103      0.1354
    114  NH2       36.6100   25.5450   -2.6560 N.pl3 103  ARG103      0.1354
@<TRIPOS>BOND
     1    56    53    1
     2    56    57    1
     3    53    52    1
     4    53    54    1
     5    55    54    2
     6    57    59   am
     7    57    58    2
     8    50    49   ar
     9    51    49   ar
    10    49    48    1
    11    47    46    2
    12    48    45    1
    13    46    45    1
    14    45    44    1
    15    90    91    1
    16    90    87    1
    17    93    91   ar
    18    93    95   ar
    19     1     2    1
    20    85    82    1
    21    91    92   ar
    22    95    96   ar
    23    86    83   am
    24    86    87    1
    25    82    83    1
    26    82    81    1
    27    42    41    1
    28     7     6    1
    29    83    84    2
    30    87    88    1
    31    43    41    1
    32    92    94   ar
    33     2     5    1
    34     2     3    1
    35    96    94   ar
    36    96    97    1
    37     5     6    1
    38    41    40    2
    39     8     6    1
    40    72    71    2
    41    81    71   am
    42    88    89    2
    43    88    98   am
    44     3     4    2
    45    71    70    1
    46    40    39    1
    47    98    99    1
    48    39    38    1
    49    80    79    1
    50    68    67    1
    51    67    66    1
    52    77    79   ar
    53    77    75   ar
    54    36    35    2
    55    79    78   ar
    56    70    69    1
    57    70    73    1
    58    60    61    1
    59    75    74   ar
    60    99   102    1
    61    99   100    1
    62    65    66    1
    63    65    64    1
    64   102   103    1
    65    78    76   ar
    66    35    34    1
    67    38    37    1
    68    74    76   ar
    69    74    73    1
    70   113   112    1
    71   110   109    1
    72   110   111    1
    73    61    64    1
    74    61    62    1
    75   109   108    1
    76   100   101    2
    77   100   104   am
    78    37    34    1
    79    34    33    1
    80   111   112    2
    81   112   114    1
    82   104   105    1
    83     9    10    1
    84    62    63    2
    85   108   105    1
    86    18    16   ar
    87    18    17   ar
    88   105   106    1
    89    16    14   ar
    90   107   106    2
    91    17    15   ar
    92    10    13    1
    93    10    11    1
    94    14    15   ar
    95    14    13    1
    96    12    11    2
    97    30    32   ar
    98    30    28   ar
    99    32    31   ar
   100    27    28   ar
   101    27    25   ar
   102    28    26   ar
   103    31    29   ar
   104    25    24   ar
   105    26    29   ar
   106    26    24   ar
   107    24    23    1
   108    23    20    1
   109    21    20    1
   110    21    22    2
   111    20    19    1
