@<TRIPOS>MOLECULE
tmp/1yumA01.pdb
 121 116 0 0 0
SMALL
GASTEIGER

@<TRIPOS>ATOM
      1  N         82.2560   68.5840   12.4130 N.3     8  GLY8       -0.1225
      2  CA        82.4560   67.4120   11.5640 C.3     8  GLY8        0.1811
      3  C         81.9020   67.6510   10.1760 C.2     8  GLY8        0.2280
      4  O         80.8930   68.3520   10.0390 O.2     8  GLY8       -0.2866
      5  N         82.0580   66.0390    5.6970 N.3    10  THR10      -0.1218
      6  CA        82.7450   65.4180    4.5750 C.3    10  THR10       0.1862
      7  C         83.7100   66.3840    3.8910 C.2    10  THR10       0.2287
      8  O         84.8260   65.9710    3.5540 O.2    10  THR10      -0.2866
      9  CB        81.7350   64.8470    3.5650 C.3    10  THR10       0.1770
     10  OG1       81.0110   63.7670    4.1780 O.3    10  THR10      -0.2211
     11  CG2       82.4900   64.2620    2.3880 C.3    10  THR10       0.0375
     12  N         86.5660   68.3810   11.5600 N.3    37  LEU37      -0.1245
     13  CA        86.7220   66.9310   11.7100 C.3    37  LEU37       0.1561
     14  C         86.2310   66.2210   10.4630 C.2    37  LEU37       0.2260
     15  O         85.0820   65.8210   10.3520 O.2    37  LEU37      -0.2867
     16  CB        85.9460   66.4550   12.9360 C.3    37  LEU37       0.0270
     17  CG        85.8650   64.9710   13.2420 C.3    37  LEU37       0.0019
     18  CD1       87.0030   64.5220   14.1580 C.3    37  LEU37       0.0001
     19  CD2       84.5240   64.6380   13.8980 C.3    37  LEU37       0.0001
     20  N         85.1900   63.6210    7.9480 N.3    39  ASN39      -0.1240
     21  CA        84.5150   62.3550    8.1790 C.3    39  ASN39       0.1653
     22  C         85.1210   61.2750    7.2840 C.2    39  ASN39       0.2266
     23  O         85.5830   61.5270    6.1760 O.2    39  ASN39      -0.2867
     24  CB        83.0200   62.5350    7.9210 C.3    39  ASN39       0.1155
     25  CG        82.4140   63.5400    8.8980 C.2    39  ASN39       0.2627
     26  OD1       81.2130   63.8170    8.8950 O.2    39  ASN39      -0.2716
     27  ND2       83.2560   64.0980    9.7650 N.am   39  ASN39      -0.0877
     28  N         89.4430   60.5650   12.6370 N.3    75  GLU75      -0.1245
     29  CA        88.5330   59.6140   12.0050 C.3    75  GLU75       0.1567
     30  C         89.1090   58.9950   10.7360 C.2    75  GLU75       0.2260
     31  O         88.7300   57.8840   10.3440 O.2    75  GLU75      -0.2867
     32  CB        87.1920   60.2830   11.6860 C.3    75  GLU75       0.0388
     33  CG        86.4370   60.6730   12.9470 C.3    75  GLU75       0.1160
     34  CD        85.0980   61.3180   12.6410 C.2    75  GLU75       0.3649
     35  OE1       85.0730   62.4840   12.2070 O.co2  75  GLU75      -0.2457
     36  OE2       84.0740   60.6350   12.8340 O.co2  75  GLU75      -0.2457
     37  N         83.7990   55.0260   11.4740 N.3    82  SER82      -0.1202
     38  CA        83.5760   54.7740   12.8880 C.3    82  SER82       0.2020
     39  C         82.4060   55.5960   13.4280 C.2    82  SER82       0.2619
     40  O         81.6570   56.1940   12.6630 O.2    82  SER82      -0.2717
     41  CB        84.8020   55.1090   13.7430 C.3    82  SER82       0.2103
     42  OG        84.7670   54.4340   14.9910 O.3    82  SER82      -0.2182
     43  N         82.3120   55.6040   14.7600 N.am   83  TYR83      -0.1961
     44  CA        81.1940   56.2960   15.4050 C.3    83  TYR83       0.1771
     45  C         81.6060   57.5630   16.1130 C.2    83  TYR83       0.2620
     46  O         82.6800   57.7600   16.6880 O.2    83  TYR83      -0.2715
     47  CB        80.5080   55.2470   16.3200 C.3    83  TYR83       0.0574
     48  CG        80.0370   54.1240   15.4110 C.ar   83  TYR83      -0.0198
     49  CD1       80.7720   52.9590   15.2480 C.ar   83  TYR83      -0.0009
     50  CD2       78.8520   54.2550   14.6990 C.ar   83  TYR83      -0.0009
     51  CE1       80.3260   51.9490   14.4100 C.ar   83  TYR83       0.0417
     52  CE2       78.4050   53.2480   13.8610 C.ar   83  TYR83       0.0417
     53  CZ        79.1450   52.0930   13.7180 C.ar   83  TYR83       0.1957
     54  OH        78.6930   51.0980   12.8790 O.3    83  TYR83      -0.2866
     55  N         80.6720   58.5310   16.0580 N.am   84  THR84      -0.1937
     56  CA        80.9750   59.8300   16.6620 C.3    84  THR84       0.2028
     57  C         81.2490   59.6660   18.1380 C.2    84  THR84       0.2642
     58  O         82.0400   60.3370   18.7730 O.2    84  THR84      -0.2714
     59  CB        79.8150   60.8090   16.3910 C.3    84  THR84       0.1808
     60  OG1       79.6400   60.9810   14.9690 O.3    84  THR84      -0.2208
     61  CG2       80.1210   62.1550   17.0080 C.3    84  THR84       0.0379
     62  N         80.5670   58.6670   18.7450 N.am   85  ILE85      -0.1977
     63  CA        80.7640   58.4610   20.1690 C.3    85  ILE85       0.1596
     64  C         82.1730   57.9790   20.4820 C.2    85  ILE85       0.2287
     65  O         82.6960   58.3430   21.5410 O.2    85  ILE85      -0.2864
     66  CB        79.7670   57.4480   20.7650 C.3    85  ILE85       0.0276
     67  CG1       80.0420   57.1320   22.2440 C.3    85  ILE85       0.0022
     68  CG2       79.7150   56.1820   19.9290 C.3    85  ILE85       0.0022
     69  CD1       79.6560   58.2620   23.1750 C.3    85  ILE85       0.0001
     70  N         69.4020   69.5400   10.1500 N.3   108  ASP108     -0.1225
     71  CA        68.9520   68.3260    9.4580 C.3   108  ASP108      0.1805
     72  C         69.6820   67.1170   10.0030 C.2   108  ASP108      0.2597
     73  O         69.1230   66.0280   10.1480 O.2   108  ASP108     -0.2718
     74  CB        69.1370   68.5060    7.9430 C.3   108  ASP108      0.1424
     75  CG        68.2720   69.6440    7.4250 C.2   108  ASP108      0.3668
     76  OD1       67.1600   69.8390    7.9690 O.co2 108  ASP108     -0.2456
     77  OD2       68.6750   70.3530    6.4800 O.co2 108  ASP108     -0.2456
     78  N         70.9570   67.2770   10.3750 N.am  109  ALA109     -0.1979
     79  CA        71.6090   66.1090   10.9710 C.3   109  ALA109      0.1597
     80  C         71.0190   65.8410   12.3400 C.2   109  ALA109      0.2287
     81  O         70.7740   64.6890   12.7050 O.2   109  ALA109     -0.2864
     82  CB        73.1180   66.2750   11.0580 C.3   109  ALA109      0.0319
     83  N         69.1070   57.9540   15.3740 N.3   115  THR115     -0.1203
     84  CA        69.5840   56.9170   14.4670 C.3   115  THR115      0.1994
     85  C         71.1050   56.8040   14.4740 C.2   115  THR115      0.2618
     86  O         71.7060   56.0830   13.6660 O.2   115  THR115     -0.2717
     87  CB        69.1420   57.1930   13.0220 C.3   115  THR115      0.1784
     88  OG1       70.2700   57.7450   12.3280 O.3   115  THR115     -0.2211
     89  CG2       68.0280   58.2270   13.0020 C.3   115  THR115      0.0376
     90  N         71.7560   57.5140   15.3880 N.am  116  TRP116     -0.1961
     91  CA        73.1870   57.3440   15.5720 C.3   116  TRP116      0.1771
     92  C         73.5070   56.3330   16.6810 C.2   116  TRP116      0.2619
     93  O         72.6560   56.0690   17.5300 O.2   116  TRP116     -0.2715
     94  CB        73.8740   58.6390   15.9840 C.3   116  TRP116      0.0590
     95  CG        73.7330   59.8090   15.0800 C.ar  116  TRP116      0.0006
     96  CD1       72.8760   60.0390   14.0520 C.ar  116  TRP116      0.0946
     97  CD2       74.5760   60.9730   15.1870 C.ar  116  TRP116      0.0152
     98  NE1       73.1250   61.2800   13.5020 N.ar  116  TRP116     -0.2442
     99  CE2       74.1630   61.8650   14.1860 C.ar  116  TRP116      0.0810
    100  CE3       75.6250   61.2940   16.0540 C.ar  116  TRP116      0.0012
    101  CZ2       74.7860   63.1010   14.0230 C.ar  116  TRP116      0.0191
    102  CZ3       76.2440   62.5260   15.8890 C.ar  116  TRP116      0.0001
    103  CH2       75.8120   63.3980   14.8820 C.ar  116  TRP116      0.0015
    104  N         74.7350   55.8360   16.6550 N.am  117  HIS117     -0.1973
    105  CA        75.2300   54.8040   17.5620 C.3   117  HIS117      0.1656
    106  C         75.5180   55.3450   18.9580 C.2   117  HIS117      0.2291
    107  O         76.2020   56.3530   19.1240 O.2   117  HIS117     -0.2864
    108  CB        76.4820   54.1580   16.9840 C.3   117  HIS117      0.0771
    109  CG        77.1510   53.1090   17.8050 C.ar  117  HIS117      0.0820
    110  ND1       76.6100   51.8610   18.0180 N.ar  117  HIS117     -0.2267
    111  CD2       78.3400   53.1140   18.4560 C.ar  117  HIS117      0.1154
    112  CE1       77.4250   51.1470   18.7680 C.ar  117  HIS117      0.1986
    113  NE2       78.4820   51.8880   19.0510 N.ar  117  HIS117     -0.2212
    114  N         76.2590   60.5970   23.9780 N.3   122  LEU122     -0.1245
    115  CA        76.9490   61.7000   23.2910 C.3   122  LEU122      0.1561
    116  C         77.1440   62.8620   24.2540 C.2   122  LEU122      0.2260
    117  O         78.2510   63.3570   24.4980 O.2   122  LEU122     -0.2867
    118  CB        76.1810   62.1570   22.0400 C.3   122  LEU122      0.0270
    119  CG        76.1110   61.0940   20.9320 C.3   122  LEU122      0.0019
    120  CD1       75.1760   61.5000   19.8020 C.3   122  LEU122      0.0001
    121  CD2       77.5090   60.7910   20.4000 C.3   122  LEU122      0.0001
@<TRIPOS>BOND
     1    11     9    1
     2     8     7    2
     3     9    10    1
     4     9     6    1
     5     7     6    1
     6     6     5    1
     7    23    22    2
     8    77    75   ar
     9    22    21    1
    10    75    74    1
    11    75    76   ar
    12    24    21    1
    13    24    25    1
    14    74    71    1
    15    20    21    1
    16    26    25    2
    17    25    27   am
    18    71    72    1
    19    71    70    1
    20    72    73    2
    21    72    78   am
    22     4     3    2
    23     3     2    1
    24    31    30    2
    25    15    14    2
    26    78    79    1
    27    14    13    1
    28    30    29    1
    29    79    82    1
    30    79    80    1
    31    37    38    1
    32    12    13    1
    33     2     1    1
    34    32    29    1
    35    32    33    1
    36    13    16    1
    37    29    28    1
    38    35    34   ar
    39    88    87    1
    40    80    81    2
    41    34    36   ar
    42    34    33    1
    43    40    39    2
    44    54    53    1
    45    38    39    1
    46    38    41    1
    47    16    17    1
    48    89    87    1
    49    87    84    1
    50    17    19    1
    51    17    18    1
    52    39    43   am
    53    98    96   ar
    54    98    99   ar
    55    86    85    2
    56    53    52   ar
    57    53    51   ar
    58    41    42    1
    59    52    50   ar
    60   101    99   ar
    61   101   103   ar
    62    96    95   ar
    63    99    97   ar
    64    51    49   ar
    65    84    85    1
    66    84    83    1
    67    85    90   am
    68    50    48   ar
    69    43    44    1
    70   103   102   ar
    71    60    59    1
    72    95    97   ar
    73    95    94    1
    74    97   100   ar
    75    49    48   ar
    76    90    91    1
    77    44    45    1
    78    44    47    1
    79    48    47    1
    80    91    94    1
    81    91    92    1
    82   102   100   ar
    83    55    45   am
    84    55    56    1
    85    45    46    2
    86    59    56    1
    87    59    61    1
    88   104    92   am
    89   104   105    1
    90    56    57    1
    91    92    93    2
    92   108   105    1
    93   108   109    1
    94   105   106    1
    95   109   110   ar
    96   109   111   ar
    97   110   112   ar
    98    57    62   am
    99    57    58    2
   100   111   113   ar
   101    62    63    1
   102   112   113   ar
   103   106   107    2
   104   120   119    1
   105    68    66    1
   106    63    64    1
   107    63    66    1
   108   121   119    1
   109    64    65    2
   110    66    67    1
   111   119   118    1
   112   118   115    1
   113    67    69    1
   114   115   114    1
   115   115   116    1
   116   116   117    2
