@<TRIPOS>MOLECULE
tmp/1yumA00.pdb
 86 84 0 0 0
SMALL
GASTEIGER

@<TRIPOS>ATOM
      1  N         82.5330   67.0820    9.1440 N.3     9  GLY9       -0.1210
      2  CA        81.9290   67.1650    7.8190 C.3     9  GLY9        0.1956
      3  C         82.6820   66.2550    6.8440 C.2     9  GLY9        0.2613
      4  O         83.7800   65.7980    7.1480 O.2     9  GLY9       -0.2717
      5  N         82.0580   66.0390    5.6970 N.am   10  THR10      -0.1938
      6  CA        82.7450   65.4180    4.5750 C.3    10  THR10       0.2028
      7  C         83.7100   66.3840    3.8910 C.2    10  THR10       0.2642
      8  O         84.8260   65.9710    3.5540 O.2    10  THR10      -0.2714
      9  CB        81.7350   64.8470    3.5650 C.3    10  THR10       0.1808
     10  OG1       81.0110   63.7670    4.1780 O.3    10  THR10      -0.2208
     11  CG2       82.4900   64.2620    2.3880 C.3    10  THR10       0.0379
     12  N         83.3730   67.6540    3.6670 N.am   11  PHE11      -0.1959
     13  CA        84.3320   68.6080    3.1040 C.3    11  PHE11       0.1771
     14  C         84.8930   68.1830    1.7330 C.2    11  PHE11       0.2619
     15  O         86.1010   67.9470    1.6190 O.2    11  PHE11      -0.2715
     16  CB        85.4710   68.8540    4.1030 C.3    11  PHE11       0.0574
     17  CG        85.0260   69.3600    5.4740 C.ar   11  PHE11      -0.0200
     18  CD1       85.1960   68.5550    6.5810 C.ar   11  PHE11      -0.0042
     19  CD2       84.4450   70.6050    5.6290 C.ar   11  PHE11      -0.0042
     20  CE1       84.8140   68.9520    7.8550 C.ar   11  PHE11      -0.0003
     21  CE2       84.0300   71.0060    6.9000 C.ar   11  PHE11      -0.0003
     22  CZ        84.1780   70.1720    7.9940 C.ar   11  PHE11      -0.0000
     23  N         84.0480   68.1320    0.7250 N.am   12  ASP12      -0.1971
     24  CA        84.3450   67.5740   -0.6020 C.3    12  ASP12       0.1709
     25  C         83.9780   68.5130   -1.7310 C.2    12  ASP12       0.2293
     26  O         83.1360   68.1790   -2.5760 O.2    12  ASP12      -0.2864
     27  CB        83.5600   66.2710   -0.7790 C.3    12  ASP12       0.1436
     28  CG        83.9650   65.4360   -1.9790 C.2    12  ASP12       0.3671
     29  OD1       85.0640   65.6620   -2.5350 O.co2  12  ASP12      -0.2456
     30  OD2       83.1640   64.5460   -2.3740 O.co2  12  ASP12      -0.2456
     31  N         84.5090   74.5020    1.8240 N.3    15  HIS15      -0.1241
     32  CA        84.3170   75.7570    1.0430 C.3    15  HIS15       0.1621
     33  C         84.0940   76.9510    1.9630 C.2    15  HIS15       0.2264
     34  O         84.1350   76.7770    3.1800 O.2    15  HIS15      -0.2867
     35  CB        83.1740   75.6030    0.0590 C.3    15  HIS15       0.0745
     36  CG        81.8650   75.0960    0.5580 C.ar   15  HIS15       0.0817
     37  ND1       81.1830   75.7130    1.5910 N.ar   15  HIS15      -0.2268
     38  CD2       81.0820   74.0560    0.2000 C.ar   15  HIS15       0.1154
     39  CE1       80.0530   75.0780    1.8510 C.ar   15  HIS15       0.1986
     40  NE2       79.9600   74.0500    1.0130 N.ar   15  HIS15      -0.2212
     41  N         81.3860   76.4590    4.8280 N.3    18  HIS18      -0.1241
     42  CA        81.9040   75.7980    6.0110 C.3    18  HIS18       0.1621
     43  C         82.8140   76.7070    6.8240 C.2    18  HIS18       0.2264
     44  O         82.7680   76.7640    8.0490 O.2    18  HIS18      -0.2867
     45  CB        82.7320   74.5700    5.6240 C.3    18  HIS18       0.0745
     46  CG        82.0420   73.5600    4.7600 C.ar   18  HIS18       0.0817
     47  ND1       82.5250   73.2570    3.5090 N.ar   18  HIS18      -0.2268
     48  CD2       80.9450   72.7800    4.9240 C.ar   18  HIS18       0.1154
     49  CE1       81.7790   72.3400    2.9280 C.ar   18  HIS18       0.1986
     50  NE2       80.8040   72.0250    3.7720 N.ar   18  HIS18      -0.2212
     51  N         76.6150   78.4840   -0.8270 N.3   176  VAL176     -0.1231
     52  CA        77.7260   77.7850   -1.4540 C.3   176  VAL176      0.1692
     53  C         77.6000   76.2940   -1.1190 C.2   176  VAL176      0.2593
     54  O         77.4060   75.9640    0.0540 O.2   176  VAL176     -0.2718
     55  CB        79.1210   78.2610   -1.0090 C.3   176  VAL176      0.0266
     56  CG1       80.1750   77.3620   -1.6860 C.3   176  VAL176      0.0020
     57  CG2       79.4220   79.7000   -1.3560 C.3   176  VAL176      0.0020
     58  N         77.7060   75.4160   -2.1240 N.am  177  SER177     -0.1938
     59  CA        77.5780   73.9920   -1.8140 C.3   177  SER177      0.2055
     60  C         78.6970   73.1990   -2.4980 C.2   177  SER177      0.2643
     61  O         79.1790   73.6230   -3.5420 O.2   177  SER177     -0.2714
     62  CB        76.2030   73.4800   -2.2020 C.3   177  SER177      0.2130
     63  OG        76.1630   72.7000   -3.3750 O.3   177  SER177     -0.2179
     64  N         79.0940   72.1070   -1.8670 N.am  178  ALA178     -0.1963
     65  CA        80.1510   71.2460   -2.3880 C.3   178  ALA178      0.1728
     66  C         79.6830   70.6660   -3.7150 C.2   178  ALA178      0.2616
     67  O         80.4600   70.5650   -4.6610 O.2   178  ALA178     -0.2715
     68  CB        80.5600   70.1150   -1.4610 C.3   178  ALA178      0.0334
     69  N         78.3970   70.2850   -3.7930 N.am  179  THR179     -0.1951
     70  CA        77.9050   69.7720   -5.0760 C.3   179  THR179      0.1897
     71  C         77.9880   70.7240   -6.2450 C.2   179  THR179      0.2313
     72  O         78.3410   70.3560   -7.3770 O.2   179  THR179     -0.2863
     73  CB        76.4270   69.3540   -4.8490 C.3   179  THR179      0.1794
     74  OG1       76.5050   68.3300   -3.8640 O.3   179  THR179     -0.2208
     75  CG2       75.7990   68.7670   -6.0980 C.3   179  THR179      0.0378
     76  N         81.6480   71.0610   -7.2170 N.3   182  ARG182     -0.1245
     77  CA        82.1030   69.9090   -7.9970 C.3   182  ARG182      0.1563
     78  C         81.6200   70.0450   -9.4300 C.2   182  ARG182      0.2260
     79  O         82.4020   69.7610  -10.3350 O.2   182  ARG182     -0.2867
     80  CB        81.6640   68.5630   -7.4040 C.3   182  ARG182      0.0307
     81  CG        82.4630   68.1930   -6.1760 C.3   182  ARG182      0.0489
     82  CD        82.1660   66.8040   -5.6710 C.3   182  ARG182      0.2205
     83  NE        80.7840   66.4650   -5.4190 N.pl3 182  ARG182     -0.0865
     84  CZ        80.0790   66.6080   -4.3060 C.cat 182  ARG182      0.5346
     85  NH1       80.5890   67.1370   -3.1930 N.pl3 182  ARG182      0.1354
     86  NH2       78.8020   66.2160   -4.2880 N.pl3 182  ARG182      0.1354
@<TRIPOS>BOND
     1    79    78    2
     2    78    77    1
     3    77    80    1
     4    77    76    1
     5    80    81    1
     6    72    71    2
     7    71    70    1
     8    81    82    1
     9    75    73    1
    10    82    83    1
    11    83    84    2
    12    70    73    1
    13    70    69    1
    14    73    74    1
    15    67    66    2
    16    84    86    1
    17    84    85    1
    18    69    66   am
    19    66    65    1
    20    61    60    2
    21    63    62    1
    22    26    25    2
    23    29    28   ar
    24    60    64   am
    25    60    59    1
    26    65    64    1
    27    65    68    1
    28    30    28   ar
    29    62    59    1
    30    58    59    1
    31    58    53   am
    32    28    27    1
    33    25    24    1
    34    56    55    1
    35    52    53    1
    36    52    55    1
    37    52    51    1
    38    57    55    1
    39    53    54    2
    40    27    24    1
    41    24    23    1
    42    35    36    1
    43    35    32    1
    44    38    36   ar
    45    38    40   ar
    46    36    37   ar
    47    23    14   am
    48    40    39   ar
    49    32    31    1
    50    32    33    1
    51    37    39   ar
    52    15    14    2
    53    14    13    1
    54    33    34    2
    55    11     9    1
    56    49    47   ar
    57    49    50   ar
    58    13    12    1
    59    13    16    1
    60    47    46   ar
    61     8     7    2
    62     9    10    1
    63     9     6    1
    64    12     7   am
    65    50    48   ar
    66     7     6    1
    67    16    17    1
    68     6     5    1
    69    46    48   ar
    70    46    45    1
    71    41    42    1
    72    17    19   ar
    73    17    18   ar
    74    45    42    1
    75    19    21   ar
    76     5     3   am
    77    42    43    1
    78    18    20   ar
    79    43    44    2
    80     3     4    2
    81     3     2    1
    82    21    22   ar
    83     2     1    1
    84    20    22   ar
