@<TRIPOS>MOLECULE
tmp/1yunB00.pdb
 174 168 0 0 0
SMALL
GASTEIGER

@<TRIPOS>ATOM
      1  N        -13.8370  -18.0640   68.2700 N.3     7  PHE7       -0.1227
      2  CA       -14.6450  -19.2340   67.9370 C.3     7  PHE7        0.1736
      3  C        -14.5050  -20.3140   69.0110 C.2     7  PHE7        0.2596
      4  O        -13.5860  -21.1310   68.9830 O.2     7  PHE7       -0.2718
      5  CB       -14.2570  -19.7900   66.5700 C.3     7  PHE7        0.0547
      6  CG       -15.1260  -20.9640   66.1360 C.ar    7  PHE7       -0.0202
      7  CD1      -16.4720  -21.0070   66.4530 C.ar    7  PHE7       -0.0042
      8  CD2      -14.5990  -22.0080   65.4110 C.ar    7  PHE7       -0.0042
      9  CE1      -17.2590  -22.0720   66.0600 C.ar    7  PHE7       -0.0003
     10  CE2      -15.3680  -23.0850   65.0200 C.ar    7  PHE7       -0.0003
     11  CZ       -16.7100  -23.1140   65.3350 C.ar    7  PHE7       -0.0000
     12  N        -15.4210  -20.2770   69.9580 N.am    8  GLY8       -0.1942
     13  CA       -15.4260  -21.0760   71.1560 C.3     8  GLY8        0.2014
     14  C        -15.8310  -22.5150   70.9510 C.2     8  GLY8        0.2639
     15  O        -16.5320  -22.8400   69.9890 O.2     8  GLY8       -0.2714
     16  N        -15.4040  -23.4100   71.8560 N.am    9  GLY9       -0.1939
     17  CA       -15.8870  -24.7770   71.7540 C.3     9  GLY9        0.2014
     18  C        -15.0900  -25.7700   72.5730 C.2     9  GLY9        0.2640
     19  O        -14.0340  -25.4850   73.1220 O.2     9  GLY9       -0.2714
     20  N        -15.5920  -27.0020   72.6420 N.am   10  THR10      -0.1936
     21  CA       -14.8370  -28.0240   73.3490 C.3    10  THR10       0.2028
     22  C        -13.8240  -28.7280   72.4450 C.2    10  THR10       0.2642
     23  O        -12.7950  -29.1400   72.9900 O.2    10  THR10      -0.2714
     24  CB       -15.7750  -29.0870   73.9550 C.3    10  THR10       0.1808
     25  OG1      -15.0370  -30.2960   74.1790 O.3    10  THR10      -0.2208
     26  CG2      -16.8650  -29.4120   72.9610 C.3    10  THR10       0.0379
     27  N        -14.1210  -28.8680   71.1650 N.am   11  PHE11      -0.1959
     28  CA       -13.2950  -29.4950   70.1440 C.3    11  PHE11       0.1771
     29  C        -12.7460  -30.8550   70.5610 C.2    11  PHE11       0.2619
     30  O        -11.5460  -31.0210   70.8140 O.2    11  PHE11      -0.2715
     31  CB       -12.1470  -28.5320   69.7870 C.3    11  PHE11       0.0574
     32  CG       -12.6690  -27.1630   69.3460 C.ar   11  PHE11      -0.0200
     33  CD1      -12.2360  -26.0010   69.9530 C.ar   11  PHE11      -0.0042
     34  CD2      -13.5950  -27.0470   68.3290 C.ar   11  PHE11      -0.0042
     35  CE1      -12.6940  -24.7600   69.5660 C.ar   11  PHE11      -0.0003
     36  CE2      -14.0560  -25.8040   67.9330 C.ar   11  PHE11      -0.0003
     37  CZ       -13.6120  -24.6470   68.5400 C.ar   11  PHE11      -0.0000
     38  N        -13.6140  -31.8670   70.6380 N.am   12  ASP12      -0.1971
     39  CA       -13.2380  -33.1630   71.2040 C.3    12  ASP12       0.1709
     40  C        -13.5940  -34.3190   70.2890 C.2    12  ASP12       0.2293
     41  O        -14.4190  -35.1590   70.6770 O.2    12  ASP12      -0.2864
     42  CB       -13.9480  -33.3490   72.5450 C.3    12  ASP12       0.1436
     43  CG       -13.5220  -34.5340   73.3800 C.2    12  ASP12       0.3671
     44  OD1      -12.4370  -35.0980   73.1680 O.co2  12  ASP12      -0.2456
     45  OD2      -14.2670  -34.9280   74.3100 O.co2  12  ASP12      -0.2456
     46  N        -13.3010  -30.8110   64.3070 N.3    15  HIS15      -0.1241
     47  CA       -13.5140  -31.6370   63.1130 C.3    15  HIS15       0.1621
     48  C        -13.7470  -30.7420   61.9100 C.2    15  HIS15       0.2264
     49  O        -13.7220  -29.5170   62.0360 O.2    15  HIS15      -0.2867
     50  CB       -14.6660  -32.6210   63.3210 C.3    15  HIS15       0.0745
     51  CG       -15.9760  -32.0500   63.7530 C.ar   15  HIS15       0.0817
     52  ND1      -16.7100  -31.1400   63.0300 N.ar   15  HIS15      -0.2268
     53  CD2      -16.7130  -32.2920   64.8700 C.ar   15  HIS15       0.1154
     54  CE1      -17.8260  -30.8300   63.6690 C.ar   15  HIS15       0.1986
     55  NE2      -17.8390  -31.5240   64.7990 N.ar   15  HIS15      -0.2212
     56  N        -16.2380  -29.9640   60.2660 N.3    17  GLY17      -0.1210
     57  CA       -17.3770  -29.0700   60.3650 C.3    17  GLY17       0.1956
     58  C        -16.9940  -27.8020   61.1020 C.2    17  GLY17       0.2611
     59  O        -17.3930  -26.7090   60.7030 O.2    17  GLY17      -0.2717
     60  N        -16.2060  -27.9090   62.1730 N.am   18  HIS18      -0.1975
     61  CA       -15.7090  -26.7420   62.8970 C.3    18  HIS18       0.1656
     62  C        -14.8520  -25.8470   62.0200 C.2    18  HIS18       0.2291
     63  O        -14.9340  -24.6210   61.9450 O.2    18  HIS18      -0.2864
     64  CB       -14.8530  -27.1510   64.1010 C.3    18  HIS18       0.0771
     65  CG       -15.6440  -27.8490   65.1730 C.ar   18  HIS18       0.0820
     66  ND1      -15.3870  -29.1390   65.5660 N.ar   18  HIS18      -0.2267
     67  CD2      -16.6820  -27.4260   65.9330 C.ar   18  HIS18       0.1154
     68  CE1      -16.2280  -29.4870   66.5260 C.ar   18  HIS18       0.1986
     69  NE2      -17.0230  -28.4620   66.7630 N.ar   18  HIS18      -0.2212
     70  N        -16.5370  -23.8450   59.0980 N.3    21  SER21      -0.1217
     71  CA       -17.2980  -22.7460   59.6880 C.3    21  SER21       0.1889
     72  C        -16.3890  -21.5930   60.0910 C.2    21  SER21       0.2288
     73  O        -16.7270  -20.4140   59.9460 O.2    21  SER21      -0.2866
     74  CB       -18.1040  -23.2620   60.8810 C.3    21  SER21       0.2089
     75  OG       -18.8940  -22.2650   61.5080 O.3    21  SER21      -0.2183
     76  N        -18.4610  -15.8050   67.9450 N.3   104  LEU104     -0.1231
     77  CA       -19.3200  -16.6700   67.1450 C.3   104  LEU104      0.1693
     78  C        -19.9340  -17.7470   68.0170 C.2   104  LEU104      0.2592
     79  O        -19.2360  -18.4480   68.7440 O.2   104  LEU104     -0.2718
     80  CB       -18.4890  -17.2750   66.0040 C.3   104  LEU104      0.0284
     81  CG       -19.2140  -18.2800   65.1040 C.3   104  LEU104      0.0019
     82  CD1      -20.3720  -17.6420   64.3380 C.3   104  LEU104      0.0001
     83  CD2      -18.2260  -18.9260   64.1450 C.3   104  LEU104      0.0001
     84  N        -21.2490  -17.8800   67.9800 N.am  105  ILE105     -0.1966
     85  CA       -21.9490  -18.8470   68.8120 C.3   105  ILE105      0.1727
     86  C        -23.1110  -19.4360   68.0060 C.2   105  ILE105      0.2616
     87  O        -23.6090  -18.7830   67.0840 O.2   105  ILE105     -0.2715
     88  CB       -22.4780  -18.2220   70.1060 C.3   105  ILE105      0.0290
     89  CG1      -23.4000  -17.0160   69.8940 C.3   105  ILE105      0.0022
     90  CG2      -21.3490  -17.8260   71.0530 C.3   105  ILE105      0.0023
     91  CD1      -23.7800  -16.3590   71.2100 C.3   105  ILE105      0.0001
     92  N        -23.4890  -20.6560   68.3650 N.am  106  GLY106     -0.1955
     93  CA       -24.5650  -21.3810   67.6990 C.3   106  GLY106      0.1869
     94  C        -25.8970  -20.8470   68.2260 C.2   106  GLY106      0.2309
     95  O        -25.8670  -20.2640   69.3120 O.2   106  GLY106     -0.2863
     96  N        -25.0850  -18.0200   65.0240 N.3   131  LEU131     -0.1245
     97  CA       -24.9950  -18.8230   63.8000 C.3   131  LEU131      0.1561
     98  C        -26.2370  -19.6850   63.6350 C.2   131  LEU131      0.2260
     99  O        -26.4400  -20.5840   64.4590 O.2   131  LEU131     -0.2867
    100  CB       -23.7250  -19.6630   63.8650 C.3   131  LEU131      0.0270
    101  CG       -23.0410  -20.1490   62.5990 C.3   131  LEU131      0.0019
    102  CD1      -21.5760  -20.4900   62.8730 C.3   131  LEU131      0.0001
    103  CD2      -23.7750  -21.3520   62.0290 C.3   131  LEU131      0.0001
    104  N        -28.5050  -22.3210   61.3020 N.3   133  ARG133     -0.1245
    105  CA       -28.2940  -23.5250   60.5230 C.3   133  ARG133      0.1563
    106  C        -29.5850  -24.3090   60.3690 C.2   133  ARG133      0.2260
    107  O        -30.5720  -24.0520   61.0640 O.2   133  ARG133     -0.2867
    108  CB       -27.2260  -24.3920   61.2010 C.3   133  ARG133      0.0307
    109  CG       -27.7070  -25.1870   62.4050 C.3   133  ARG133      0.0489
    110  CD       -27.0060  -26.5410   62.4750 C.3   133  ARG133      0.2205
    111  NE       -25.8310  -26.5330   63.3150 N.pl3 133  ARG133     -0.0865
    112  CZ       -24.6980  -27.1980   63.3390 C.cat 133  ARG133      0.5346
    113  NH1      -24.3660  -28.1370   62.4700 N.pl3 133  ARG133      0.1354
    114  NH2      -23.8280  -26.8970   64.3060 N.pl3 133  ARG133      0.1354
    115  N        -25.5750  -20.6080   58.2400 N.3   171  GLN171     -0.1245
    116  CA       -24.6540  -21.6360   57.7440 C.3   171  GLN171      0.1566
    117  C        -25.4650  -22.9210   57.5010 C.2   171  GLN171      0.2260
    118  O        -26.4930  -23.1220   58.1380 O.2   171  GLN171     -0.2867
    119  CB       -23.4740  -21.9280   58.6500 C.3   171  GLN171      0.0367
    120  CG       -22.1040  -21.7270   58.0100 C.3   171  GLN171      0.0905
    121  CD       -21.0250  -21.5290   59.0650 C.2   171  GLN171      0.2608
    122  OE1      -20.8710  -22.3540   59.9650 O.2   171  GLN171     -0.2717
    123  NE2      -20.2770  -20.4360   58.9840 N.am  171  GLN171     -0.0878
    124  N        -24.1710  -26.5280   57.5160 N.3   173  PRO173     -0.2102
    125  CA       -23.0080  -27.2990   57.9400 C.3   173  PRO173      0.1504
    126  C        -22.8640  -28.6500   57.2490 C.2   173  PRO173      0.2575
    127  O        -23.7680  -29.3360   56.7970 O.2   173  PRO173     -0.2718
    128  CB       -23.2620  -27.5030   59.4450 C.3   173  PRO173      0.0282
    129  CG       -24.7480  -27.4690   59.5720 C.3   173  PRO173      0.0208
    130  CD       -25.2320  -26.4900   58.5380 C.3   173  PRO173      0.0893
    131  N        -21.5890  -29.0060   57.1670 N.am  174  LEU174     -0.1980
    132  CA       -21.1240  -30.3450   56.9060 C.3   174  LEU174      0.1596
    133  C        -21.6890  -31.1960   58.0450 C.2   174  LEU174      0.2287
    134  O        -21.4790  -30.8750   59.2180 O.2   174  LEU174     -0.2864
    135  CB       -19.6000  -30.3790   56.8710 C.3   174  LEU174      0.0297
    136  CG       -18.9390  -29.4930   55.8080 C.3   174  LEU174      0.0022
    137  CD1      -17.4280  -29.4800   55.9520 C.3   174  LEU174      0.0001
    138  CD2      -19.3590  -29.9760   54.4200 C.3   174  LEU174      0.0001
    139  N        -21.2900  -33.3110   60.3580 N.3   176  VAL176     -0.1231
    140  CA       -20.2950  -34.0740   61.1040 C.3   176  VAL176      0.1692
    141  C        -20.3760  -33.6670   62.5700 C.2   176  VAL176      0.2593
    142  O        -20.5700  -32.4740   62.8470 O.2   176  VAL176     -0.2718
    143  CB       -18.8520  -33.8560   60.6200 C.3   176  VAL176      0.0266
    144  CG1      -17.9670  -35.0030   61.0950 C.3   176  VAL176      0.0020
    145  CG2      -18.7490  -33.7390   59.1110 C.3   176  VAL176      0.0020
    146  N        -20.2070  -34.6400   63.4670 N.am  177  SER177     -0.1938
    147  CA       -20.1730  -34.2570   64.8870 C.3   177  SER177      0.2055
    148  C        -18.9690  -34.8720   65.5950 C.2   177  SER177      0.2643
    149  O        -18.4800  -35.9060   65.1320 O.2   177  SER177     -0.2714
    150  CB       -21.4950  -34.6380   65.5390 C.3   177  SER177      0.2130
    151  OG       -21.6650  -36.0250   65.7440 O.3   177  SER177     -0.2179
    152  N        -18.4900  -34.2750   66.6890 N.am  178  ALA178     -0.1963
    153  CA       -17.4030  -34.8600   67.4720 C.3   178  ALA178      0.1728
    154  C        -17.8220  -36.1880   68.1080 C.2   178  ALA178      0.2616
    155  O        -17.1260  -37.1980   68.1480 O.2   178  ALA178     -0.2715
    156  CB       -16.9530  -33.9130   68.5720 C.3   178  ALA178      0.0334
    157  N        -19.0420  -36.1840   68.6310 N.am  179  THR179     -0.1951
    158  CA       -19.6420  -37.3790   69.1940 C.3   179  THR179      0.1897
    159  C        -19.5550  -38.5830   68.2720 C.2   179  THR179      0.2313
    160  O        -19.2890  -39.6970   68.7140 O.2   179  THR179     -0.2863
    161  CB       -21.1520  -37.1660   69.4840 C.3   179  THR179      0.1794
    162  OG1      -21.2830  -36.2650   70.5770 O.3   179  THR179     -0.2208
    163  CG2      -21.8090  -38.4870   69.8620 C.3   179  THR179      0.0378
    164  N        -15.9000  -39.5780   67.7060 N.3   182  ARG182     -0.1245
    165  CA       -15.4250  -40.3830   68.8250 C.3   182  ARG182      0.1563
    166  C        -15.9730  -41.8050   68.7200 C.2   182  ARG182      0.2260
    167  O        -15.2370  -42.7360   69.0530 O.2   182  ARG182     -0.2867
    168  CB       -15.8090  -39.7170   70.1460 C.3   182  ARG182      0.0307
    169  CG       -15.2810  -38.2950   70.2940 C.3   182  ARG182      0.0489
    170  CD       -15.3050  -37.8620   71.7620 C.3   182  ARG182      0.2205
    171  NE       -16.6540  -37.8940   72.3310 N.pl3 182  ARG182     -0.0865
    172  CZ       -17.4990  -36.8740   72.2450 C.cat 182  ARG182      0.5346
    173  NH1      -17.1320  -35.7590   71.6240 N.pl3 182  ARG182      0.1354
    174  NH2      -18.7160  -36.9380   72.7750 N.pl3 182  ARG182      0.1354
@<TRIPOS>BOND
     1   138   136    1
     2   136   137    1
     3   136   135    1
     4   127   126    2
     5   135   132    1
     6   132   131    1
     7   132   133    1
     8   131   126   am
     9   126   125    1
    10   117   116    1
    11   117   118    2
    12   124   125    1
    13   124   130    1
    14   116   115    1
    15   116   119    1
    16   125   128    1
    17   120   119    1
    18   120   121    1
    19   133   134    2
    20   130   129    1
    21   123   121   am
    22   121   122    2
    23    70    71    1
    24   145   143    1
    25   128   129    1
    26    71    72    1
    27    71    74    1
    28    73    72    2
    29    56    57    1
    30   139   140    1
    31    57    58    1
    32   106   105    1
    33   106   107    2
    34   105   108    1
    35   105   104    1
    36   143   144    1
    37   143   140    1
    38    59    58    2
    39    74    75    1
    40    58    60   am
    41   140   141    1
    42   108   109    1
    43    48    49    2
    44    48    47    1
    45    63    62    2
    46    62    61    1
    47   103   101    1
    48    60    61    1
    49   109   110    1
    50   113   112    1
    51   110   111    1
    52   141   142    2
    53   141   146   am
    54   101   102    1
    55   101   100    1
    56    61    64    1
    57    52    54   ar
    58    52    51   ar
    59    47    50    1
    60    47    46    1
    61   111   112    2
    62    50    51    1
    63   112   114    1
    64   146   147    1
    65    98    97    1
    66    98    99    2
    67    54    55   ar
    68    51    53   ar
    69    97   100    1
    70    97    96    1
    71    64    65    1
    72    83    81    1
    73    82    81    1
    74    55    53   ar
    75   147   150    1
    76   147   148    1
    77    10    11   ar
    78    10     8   ar
    79    81    80    1
    80   149   148    2
    81    65    66   ar
    82    65    67   ar
    83    11     9   ar
    84     8     6   ar
    85   150   151    1
    86    66    68   ar
    87   148   152   am
    88    67    69   ar
    89    80    77    1
    90     9     7   ar
    91     6     7   ar
    92     6     5    1
    93    68    69   ar
    94     5     2    1
    95   152   153    1
    96    87    86    2
    97    77    76    1
    98    77    78    1
    99   153   154    1
   100   153   156    1
   101    93    94    1
   102    93    92    1
   103   164   165    1
   104    36    34   ar
   105    36    37   ar
   106     2     1    1
   107     2     3    1
   108    84    78   am
   109    84    85    1
   110    86    92   am
   111    86    85    1
   112    78    79    2
   113   154   155    2
   114   154   157   am
   115    94    95    2
   116   159   160    2
   117   159   158    1
   118    34    32   ar
   119    37    35   ar
   120   157   158    1
   121   166   165    1
   122   166   167    2
   123    85    88    1
   124   165   168    1
   125     4     3    2
   126     3    12   am
   127   158   161    1
   128    32    31    1
   129    32    33   ar
   130   161   163    1
   131   161   162    1
   132    35    33   ar
   133    31    28    1
   134    89    88    1
   135    89    91    1
   136    12    13    1
   137    15    14    2
   138    88    90    1
   139    28    29    1
   140    28    27    1
   141   168   169    1
   142    40    41    2
   143    40    39    1
   144   169   170    1
   145    29    38   am
   146    29    30    2
   147    38    39    1
   148    14    13    1
   149    14    16   am
   150    27    22   am
   151    39    42    1
   152   173   172    1
   153    17    16    1
   154    17    18    1
   155   170   171    1
   156   172   171    2
   157   172   174    1
   158    22    23    2
   159    22    21    1
   160    42    43    1
   161    18    20   am
   162    18    19    2
   163    20    21    1
   164    26    24    1
   165    44    43   ar
   166    21    24    1
   167    43    45   ar
   168    24    25    1
