@<TRIPOS>MOLECULE
tmp/1yunA00.pdb
 131 127 0 0 0
SMALL
GASTEIGER

@<TRIPOS>ATOM
      1  N         18.0070  -51.1900   69.4160 N.3     7  PHE7       -0.1227
      2  CA        19.1870  -50.3620   69.6340 C.3     7  PHE7        0.1736
      3  C         20.2100  -50.6810   68.5410 C.2     7  PHE7        0.2596
      4  O         20.9660  -51.6480   68.6210 O.2     7  PHE7       -0.2718
      5  CB        19.7340  -50.5800   71.0380 C.3     7  PHE7        0.0547
      6  CG        20.9380  -49.7620   71.4550 C.ar    7  PHE7       -0.0202
      7  CD1       21.3440  -48.6040   70.8110 C.ar    7  PHE7       -0.0042
      8  CD2       21.6960  -50.1630   72.5440 C.ar    7  PHE7       -0.0042
      9  CE1       22.4510  -47.8790   71.2040 C.ar    7  PHE7       -0.0003
     10  CE2       22.8030  -49.4450   72.9400 C.ar    7  PHE7       -0.0003
     11  CZ        23.1970  -48.3030   72.2900 C.ar    7  PHE7       -0.0000
     12  N         20.2210  -49.8050   67.5370 N.am    8  GLY8       -0.1942
     13  CA        21.1570  -49.8930   66.4450 C.3     8  GLY8        0.2014
     14  C         22.4880  -49.2180   66.7050 C.2     8  GLY8        0.2639
     15  O         22.5420  -48.1100   67.2380 O.2     8  GLY8       -0.2714
     16  N         23.5810  -49.8570   66.3050 N.am    9  GLY9       -0.1939
     17  CA        24.9080  -49.2440   66.2860 C.3     9  GLY9        0.2014
     18  C         25.8560  -50.0320   65.4020 C.2     9  GLY9        0.2640
     19  O         25.6690  -51.2070   65.0550 O.2     9  GLY9       -0.2714
     20  N         26.9610  -49.4140   64.9750 N.am   10  THR10      -0.1936
     21  CA        27.9730  -50.2140   64.2910 C.3    10  THR10       0.2028
     22  C         28.6200  -51.2280   65.2320 C.2    10  THR10       0.2642
     23  O         28.9040  -52.3370   64.7820 O.2    10  THR10      -0.2714
     24  CB        29.0090  -49.2670   63.6640 C.3    10  THR10       0.1808
     25  OG1       28.2480  -48.2990   62.9240 O.3    10  THR10      -0.2208
     26  CG2       29.9170  -49.9700   62.6730 C.3    10  THR10       0.0379
     27  N         28.8290  -50.8870   66.4920 N.am   11  PHE11      -0.1959
     28  CA        29.3950  -51.7230   67.5390 C.3    11  PHE11       0.1771
     29  C         30.7580  -52.2940   67.1340 C.2    11  PHE11       0.2619
     30  O         30.8550  -53.5070   66.9400 O.2    11  PHE11      -0.2715
     31  CB        28.4410  -52.8670   67.8830 C.3    11  PHE11       0.0574
     32  CG        27.0210  -52.5260   68.3160 C.ar   11  PHE11      -0.0200
     33  CD1       25.9240  -52.8330   67.5330 C.ar   11  PHE11      -0.0042
     34  CD2       26.7730  -51.9040   69.5280 C.ar   11  PHE11      -0.0042
     35  CE1       24.6170  -52.5570   67.9220 C.ar   11  PHE11      -0.0003
     36  CE2       25.4850  -51.6090   69.9300 C.ar   11  PHE11      -0.0003
     37  CZ        24.4070  -51.9240   69.1300 C.ar   11  PHE11      -0.0000
     38  N         31.8110  -51.5030   67.0020 N.am   12  ASP12      -0.1971
     39  CA        33.1090  -51.9180   66.4650 C.3    12  ASP12       0.1709
     40  C         34.2650  -51.5980   67.3970 C.2    12  ASP12       0.2293
     41  O         35.1130  -50.7460   67.0760 O.2    12  ASP12      -0.2864
     42  CB        33.3290  -51.1960   65.1370 C.3    12  ASP12       0.1436
     43  CG        34.4940  -51.6720   64.2990 C.2    12  ASP12       0.3671
     44  OD1       34.7980  -52.8810   64.2560 O.co2  12  ASP12      -0.2456
     45  OD2       35.1290  -50.8220   63.6340 O.co2  12  ASP12      -0.2456
     46  N         30.8240  -52.3230   73.5840 N.3    15  HIS15      -0.1241
     47  CA        31.5780  -52.0360   74.8080 C.3    15  HIS15       0.1621
     48  C         30.6380  -51.7470   75.9690 C.2    15  HIS15       0.2264
     49  O         29.4230  -51.8740   75.8390 O.2    15  HIS15      -0.2867
     50  CB        32.5530  -50.8680   74.6550 C.3    15  HIS15       0.0745
     51  CG        32.0180  -49.5760   74.1350 C.ar   15  HIS15       0.0817
     52  ND1       31.0780  -48.8090   74.7920 N.ar   15  HIS15      -0.2268
     53  CD2       32.3170  -48.8940   73.0020 C.ar   15  HIS15       0.1154
     54  CE1       30.8180  -47.7230   74.0810 C.ar   15  HIS15       0.1986
     55  NE2       31.5530  -47.7500   72.9790 N.ar   15  HIS15      -0.2212
     56  N         29.8320  -48.9980   77.4030 N.3    17  GLY17      -0.1210
     57  CA        28.9730  -47.8270   77.2260 C.3    17  GLY17       0.1956
     58  C         27.6790  -48.2350   76.5350 C.2    17  GLY17       0.2611
     59  O         26.5800  -47.9080   76.9880 O.2    17  GLY17      -0.2717
     60  N         27.7880  -48.9740   75.4210 N.am   18  HIS18      -0.1975
     61  CA        26.5880  -49.4790   74.7710 C.3    18  HIS18       0.1656
     62  C         25.7620  -50.3730   75.7000 C.2    18  HIS18       0.2291
     63  O         24.5570  -50.1980   75.8740 O.2    18  HIS18      -0.2864
     64  CB        26.8510  -50.3250   73.5340 C.3    18  HIS18       0.0771
     65  CG        27.8840  -49.9020   72.5640 C.ar   18  HIS18       0.0820
     66  ND1       28.9850  -50.6890   72.2960 N.ar   18  HIS18      -0.2267
     67  CD2       27.9980  -48.8240   71.7600 C.ar   18  HIS18       0.1154
     68  CE1       29.7300  -50.1000   71.3850 C.ar   18  HIS18       0.1986
     69  NE2       29.1660  -48.9600   71.0410 N.ar   18  HIS18      -0.2212
     70  N         24.1660  -48.6020   78.4240 N.3    21  SER21      -0.1217
     71  CA        22.9910  -47.8270   77.9920 C.3    21  SER21       0.1889
     72  C         21.8370  -48.7690   77.6550 C.2    21  SER21       0.2288
     73  O         20.6660  -48.4510   77.8940 O.2    21  SER21      -0.2866
     74  CB        23.2980  -46.9150   76.8090 C.3    21  SER21       0.2089
     75  OG        24.2610  -45.9190   77.1210 O.3    21  SER21      -0.2183
     76  N         20.4000  -41.6920   69.2450 N.3   106  GLY106     -0.1225
     77  CA        21.1430  -40.6190   69.8870 C.3   106  GLY106      0.1811
     78  C         20.6990  -39.2700   69.3460 C.2   106  GLY106      0.2280
     79  O         20.2740  -39.1720   68.1880 O.2   106  GLY106     -0.2866
     80  N         18.2310  -40.4220   72.8800 N.3   131  LEU131     -0.1245
     81  CA        19.1310  -40.3020   74.0200 C.3   131  LEU131      0.1561
     82  C         19.6380  -38.8700   74.1110 C.2   131  LEU131      0.2260
     83  O         20.2900  -38.3850   73.1870 O.2   131  LEU131     -0.2867
     84  CB        20.2910  -41.2780   73.8840 C.3   131  LEU131      0.0270
     85  CG        21.1070  -41.5930   75.1360 C.3   131  LEU131      0.0019
     86  CD1       20.2680  -41.3840   76.3810 C.3   131  LEU131      0.0001
     87  CD2       21.6680  -43.0090   75.0470 C.3   131  LEU131      0.0001
     88  N         22.1790  -36.3060   76.2970 N.3   133  ARG133     -0.1245
     89  CA        23.3280  -36.5180   77.1800 C.3   133  ARG133      0.1563
     90  C         24.2360  -35.3030   77.1810 C.2   133  ARG133      0.2260
     91  O         24.2310  -34.5040   76.2350 O.2   133  ARG133     -0.2867
     92  CB        24.0750  -37.7860   76.7530 C.3   133  ARG133      0.0307
     93  CG        25.3980  -37.4830   76.0680 C.3   133  ARG133      0.0489
     94  CD        26.4460  -38.5390   76.3810 C.3   133  ARG133      0.2205
     95  NE        26.7010  -39.3950   75.2240 N.pl3 133  ARG133     -0.0865
     96  CZ        25.8050  -40.1810   74.6440 C.cat 133  ARG133      0.5346
     97  NH1       24.5620  -40.2390   75.1060 N.pl3 133  ARG133      0.1354
     98  NH2       26.1470  -40.9210   73.5940 N.pl3 133  ARG133      0.1354
     99  N         26.1160  -41.6810   79.7870 N.3   173  PRO173     -0.2102
    100  CA        26.7960  -42.8610   79.2450 C.3   173  PRO173      0.1504
    101  C         28.2520  -42.8690   79.6860 C.2   173  PRO173      0.2575
    102  O         28.8780  -41.8100   79.7270 O.2   173  PRO173     -0.2718
    103  CB        26.6730  -42.6790   77.7330 C.3   173  PRO173      0.0282
    104  CG        25.5510  -41.7030   77.5570 C.3   173  PRO173      0.0208
    105  CD        25.7150  -40.7460   78.7190 C.3   173  PRO173      0.0893
    106  N         28.7800  -44.0430   80.0280 N.am  174  LEU174     -0.1980
    107  CA        30.1780  -44.0930   80.4350 C.3   174  LEU174      0.1596
    108  C         31.0910  -43.4730   79.3810 C.2   174  LEU174      0.2287
    109  O         30.8020  -43.4830   78.1830 O.2   174  LEU174     -0.2864
    110  CB        30.5650  -45.5460   80.7150 C.3   174  LEU174      0.0297
    111  CG        30.1230  -46.0110   82.1110 C.3   174  LEU174      0.0022
    112  CD1       30.0740  -47.5270   82.1700 C.3   174  LEU174      0.0001
    113  CD2       31.0470  -45.4200   83.1620 C.3   174  LEU174      0.0001
    114  N         33.3370  -44.2570   77.5570 N.3   176  VAL176     -0.1231
    115  CA        33.9510  -45.3610   76.8350 C.3   176  VAL176      0.1692
    116  C         33.6110  -45.2010   75.3490 C.2   176  VAL176      0.2593
    117  O         32.4390  -44.9300   75.0760 O.2   176  VAL176     -0.2718
    118  CB        33.4890  -46.7450   77.3090 C.3   176  VAL176      0.0266
    119  CG1       34.2090  -47.8300   76.5080 C.3   176  VAL176      0.0020
    120  CG2       33.7650  -46.9360   78.7850 C.3   176  VAL176      0.0020
    121  N         34.6000  -45.3350   74.4890 N.am  177  SER177     -0.1938
    122  CA        34.4770  -45.0810   73.0590 C.3   177  SER177      0.2055
    123  C         35.0090  -46.2240   72.2140 C.2   177  SER177      0.2642
    124  O         36.0510  -46.8010   72.5380 O.2   177  SER177     -0.2714
    125  CB        35.2590  -43.8100   72.7100 C.3   177  SER177      0.2130
    126  OG        35.8410  -43.9140   71.4180 O.3   177  SER177     -0.2179
    127  N         34.3430  -46.6010   71.1140 N.am  178  ALA178     -0.1977
    128  CA        34.9390  -47.7200   70.3820 C.3   178  ALA178      0.1597
    129  C         36.2350  -47.2350   69.7290 C.2   178  ALA178      0.2287
    130  O         37.1520  -48.0330   69.5580 O.2   178  ALA178     -0.2864
    131  CB        33.9590  -48.3020   69.3770 C.3   178  ALA178      0.0319
@<TRIPOS>BOND
     1    26    24    1
     2    25    24    1
     3    45    43   ar
     4    24    21    1
     5    44    43   ar
     6    21    20    1
     7    21    22    1
     8    43    42    1
     9    23    22    2
    10    20    18   am
    11    19    18    2
    12    42    39    1
    13    22    27   am
    14    18    17    1
    15    17    16    1
    16    16    14   am
    17    13    14    1
    18    13    12    1
    19    39    38    1
    20    39    40    1
    21    27    28    1
    22    14    15    2
    23    30    29    2
    24    38    29   am
    25    41    40    2
    26    29    28    1
    27    33    35   ar
    28    33    32   ar
    29    12     3   am
    30    28    31    1
    31    31    32    1
    32    35    37   ar
    33    79    78    2
    34    32    34   ar
    35     3     4    2
    36     3     2    1
    37    37    36   ar
    38    76    77    1
    39    78    77    1
    40   131   128    1
    41     1     2    1
    42    34    36   ar
    43   130   129    2
    44     2     5    1
    45   129   128    1
    46   128   127    1
    47     7     9   ar
    48     7     6   ar
    49     5     6    1
    50    69    68   ar
    51    69    67   ar
    52   127   123   am
    53     9    11   ar
    54    68    66   ar
    55   126   125    1
    56     6     8   ar
    57    67    65   ar
    58   123   124    2
    59   123   122    1
    60    11    10   ar
    61    66    65   ar
    62     8    10   ar
    63    65    64    1
    64   125   122    1
    65    80    81    1
    66    55    53   ar
    67    55    54   ar
    68    53    51   ar
    69   122   121    1
    70    83    82    2
    71    64    61    1
    72    46    47    1
    73    98    96    1
    74    84    81    1
    75    84    85    1
    76    81    82    1
    77    54    52   ar
    78    51    50    1
    79    51    52   ar
    80   121   116   am
    81    96    97    1
    82    96    95    2
    83    50    47    1
    84    61    60    1
    85    61    62    1
    86    47    48    1
    87    87    85    1
    88   117   116    2
    89    85    86    1
    90    95    94    1
    91   116   115    1
    92    60    58   am
    93    62    63    2
    94    49    48    2
    95    93    94    1
    96    93    92    1
    97    91    90    2
    98    88    89    1
    99   119   118    1
   100    58    59    2
   101    58    57    1
   102    92    89    1
   103    74    75    1
   104    74    71    1
   105   115   118    1
   106   115   114    1
   107    89    90    1
   108    57    56    1
   109   118   120    1
   110   104   103    1
   111   104   105    1
   112    72    73    2
   113    72    71    1
   114   103   100    1
   115    71    70    1
   116   109   108    2
   117   105    99    1
   118   100   101    1
   119   100    99    1
   120   108   107    1
   121   101   102    2
   122   101   106   am
   123   106   107    1
   124   107   110    1
   125   110   111    1
   126   111   112    1
   127   111   113    1
