@<TRIPOS>MOLECULE
tmp/1yvdA00.pdb
 180 175 0 0 0
SMALL
GASTEIGER

@<TRIPOS>ATOM
      1  N         39.0980   27.9940   35.6510 N.3    13  THR13      -0.1203
      2  CA        39.0670   26.5550   35.9120 C.3    13  THR13       0.1994
      3  C         40.1800   26.2160   36.8950 C.2    13  THR13       0.2618
      4  O         41.2530   26.8120   36.8490 O.2    13  THR13      -0.2717
      5  CB        39.2440   25.7380   34.6200 C.3    13  THR13       0.1784
      6  OG1       38.1070   25.9530   33.7930 O.3    13  THR13      -0.2211
      7  CG2       39.3120   24.2640   34.9020 C.3    13  THR13       0.0376
      8  N         39.8960   25.2700   37.7820 N.am   14  GLY14      -0.1942
      9  CA        40.8820   24.7480   38.7200 C.3    14  GLY14       0.2014
     10  C         41.0100   25.4560   40.0540 C.2    14  GLY14       0.2639
     11  O         41.7850   25.0090   40.9060 O.2    14  GLY14      -0.2714
     12  N         40.2760   26.5530   40.2590 N.am   15  VAL15      -0.1963
     13  CA        40.4350   27.3340   41.5030 C.3    15  VAL15       0.1727
     14  C         39.7320   26.7200   42.7330 C.2    15  VAL15       0.2617
     15  O         40.0720   27.0510   43.8700 O.2    15  VAL15      -0.2715
     16  CB        40.0210   28.8360   41.3580 C.3    15  VAL15       0.0290
     17  CG1       40.9090   29.5560   40.3330 C.3    15  VAL15       0.0023
     18  CG2       38.5260   28.9760   41.0130 C.3    15  VAL15       0.0023
     19  N         38.7630   25.8420   42.4870 N.am   16  GLY16      -0.1940
     20  CA        38.0590   25.1140   43.5450 C.3    16  GLY16       0.2014
     21  C         36.6090   25.5300   43.7330 C.2    16  GLY16       0.2639
     22  O         36.0540   25.3370   44.8020 O.2    16  GLY16      -0.2714
     23  N         35.9820   26.0990   42.7000 N.am   17  LYS17      -0.1963
     24  CA        34.5720   26.5000   42.8040 C.3    17  LYS17       0.1728
     25  C         33.7010   25.3110   43.2210 C.2    17  LYS17       0.2617
     26  O         32.9420   25.4070   44.1800 O.2    17  LYS17      -0.2715
     27  CB        34.0520   27.0940   41.4860 C.3    17  LYS17       0.0311
     28  CG        34.7990   28.3420   41.0170 C.3    17  LYS17       0.0038
     29  CD        34.2290   28.8760   39.7030 C.3    17  LYS17       0.0206
     30  CE        34.4600   27.8960   38.5500 C.3    17  LYS17       0.1093
     31  NZ        35.9090   27.6640   38.3060 N.3    17  LYS17      -0.1314
     32  N         33.8200   24.1960   42.4970 N.am   18  SER18      -0.1936
     33  CA        33.0210   23.0120   42.7990 C.3    18  SER18       0.2055
     34  C         33.3340   22.4550   44.1840 C.2    18  SER18       0.2643
     35  O         32.4290   22.0610   44.9090 O.2    18  SER18      -0.2714
     36  CB        33.2270   21.9190   41.7480 C.3    18  SER18       0.2130
     37  OG        32.7050   22.3260   40.4840 O.3    18  SER18      -0.2179
     38  N         34.6150   22.4300   44.5390 N.am   19  SER19      -0.1949
     39  CA        35.0190   21.9080   45.8510 C.3    19  SER19       0.1924
     40  C         34.4080   22.7420   46.9890 C.2    19  SER19       0.2314
     41  O         33.9680   22.1870   48.0070 O.2    19  SER19      -0.2863
     42  CB        36.5450   21.8370   45.9630 C.3    19  SER19       0.2116
     43  OG        37.0930   20.9290   45.0110 O.3    19  SER19      -0.2180
     44  N         35.1000   16.3680   50.3600 N.3    29  PHE29      -0.1227
     45  CA        36.1520   16.8810   49.4970 C.3    29  PHE29       0.1736
     46  C         36.7620   15.7300   48.6910 C.2    29  PHE29       0.2595
     47  O         36.9880   14.6270   49.2150 O.2    29  PHE29      -0.2718
     48  CB        37.2310   17.6030   50.3270 C.3    29  PHE29       0.0547
     49  CG        38.4210   18.0650   49.5130 C.ar   29  PHE29      -0.0202
     50  CD1       38.3540   19.2350   48.7590 C.ar   29  PHE29      -0.0042
     51  CD2       39.6000   17.3230   49.4990 C.ar   29  PHE29      -0.0042
     52  CE1       39.4510   19.6610   47.9950 C.ar   29  PHE29      -0.0003
     53  CE2       40.7010   17.7340   48.7370 C.ar   29  PHE29      -0.0003
     54  CZ        40.6250   18.9120   47.9860 C.ar   29  PHE29      -0.0000
     55  N         37.0190   15.9940   47.4140 N.am   30  ASP30      -0.1960
     56  CA        37.5350   14.9800   46.5160 C.3    30  ASP30       0.1825
     57  C         38.7180   15.5540   45.7450 C.2    30  ASP30       0.2464
     58  O         38.5230   16.4110   44.8790 O.2    30  ASP30      -0.2730
     59  CB        36.4210   14.5250   45.5620 C.3    30  ASP30       0.1450
     60  CG        36.8910   13.5030   44.5390 C.2    30  ASP30       0.3671
     61  OD1       37.9590   12.8840   44.7260 O.co2  30  ASP30      -0.2456
     62  OD2       36.1770   13.3310   43.5330 O.co2  30  ASP30      -0.2456
     63  N         39.9480   15.0920   46.0580 N.am   31  PRO31      -0.2727
     64  CA        41.1190   15.5500   45.3060 C.3    31  PRO31       0.1402
     65  C         41.0390   15.2510   43.8030 C.2    31  PRO31       0.2269
     66  O         41.7040   15.9240   43.0120 O.2    31  PRO31      -0.2865
     67  CB        42.2920   14.7950   45.9560 C.3    31  PRO31       0.0296
     68  CG        41.6880   13.7020   46.7530 C.3    31  PRO31       0.0237
     69  CD        40.3160   14.1680   47.1440 C.3    31  PRO31       0.0939
     70  N         38.1670   15.3750   41.8840 N.3    33  ILE33      -0.1231
     71  CA        36.9670   15.9620   41.2740 C.3    33  ILE33       0.1692
     72  C         37.2680   16.4430   39.8410 C.2    33  ILE33       0.2592
     73  O         38.3330   17.0030   39.5860 O.2    33  ILE33      -0.2718
     74  CB        36.3580   17.0870   42.1730 C.3    33  ILE33       0.0266
     75  CG1       35.0420   17.6140   41.5860 C.3    33  ILE33       0.0019
     76  CG2       37.3620   18.2210   42.3980 C.3    33  ILE33       0.0020
     77  CD1       34.2350   18.4630   42.5550 C.3    33  ILE33       0.0001
     78  N         36.3560   16.1710   38.9080 N.am   34  ASN34      -0.1961
     79  CA        36.5550   16.5280   37.4960 C.3    34  ASN34       0.1804
     80  C         36.1020   17.9580   37.2090 C.2    34  ASN34       0.2463
     81  O         35.2140   18.4630   37.8980 O.2    34  ASN34      -0.2730
     82  CB        35.8020   15.5530   36.5770 C.3    34  ASN34       0.1195
     83  CG        36.3440   14.1360   36.6510 C.2    34  ASN34       0.2630
     84  OD1       37.5350   13.9210   36.8770 O.2    34  ASN34      -0.2716
     85  ND2       35.4660   13.1620   36.4590 N.am   34  ASN34      -0.0877
     86  N         36.7100   18.6130   36.1910 N.am   35  PRO35      -0.2716
     87  CA        36.2270   19.9190   35.7310 C.3    35  PRO35       0.1536
     88  C         34.7320   19.8860   35.4090 C.2    35  PRO35       0.2599
     89  O         34.2210   18.8760   34.9220 O.2    35  PRO35      -0.2715
     90  CB        37.0540   20.1790   34.4750 C.3    35  PRO35       0.0310
     91  CG        38.2930   19.3760   34.6660 C.3    35  PRO35       0.0237
     92  CD        37.8890   18.1630   35.4250 C.3    35  PRO35       0.0939
     93  N         34.0420   20.9790   35.7160 N.am   36  THR36      -0.1951
     94  CA        32.5970   21.0810   35.5380 C.3    36  THR36       0.1897
     95  C         32.2610   21.3370   34.0700 C.2    36  THR36       0.2313
     96  O         32.9420   22.1120   33.3890 O.2    36  THR36      -0.2863
     97  CB        32.0010   22.1920   36.4530 C.3    36  THR36       0.1794
     98  OG1       32.3260   21.8930   37.8210 O.3    36  THR36      -0.2208
     99  CG2       30.4990   22.2950   36.3240 C.3    36  THR36       0.0378
    100  N         27.1020   26.4500   40.4180 N.3    59  ASP59      -0.1225
    101  CA        28.5140   26.1640   40.3190 C.3    59  ASP59       0.1805
    102  C         28.8810   26.0850   38.8400 C.2    59  ASP59       0.2598
    103  O         28.6530   25.0670   38.1840 O.2    59  ASP59      -0.2718
    104  CB        28.8150   24.8540   41.0490 C.3    59  ASP59       0.1424
    105  CG        30.2150   24.3690   40.8230 C.2    59  ASP59       0.3668
    106  OD1       31.1160   25.2190   40.6770 O.co2  59  ASP59      -0.2456
    107  OD2       30.4040   23.1320   40.7950 O.co2  59  ASP59      -0.2456
    108  N         29.4680   27.1630   38.3370 N.am   60  THR60      -0.1953
    109  CA        29.6680   27.3470   36.9000 C.3    60  THR60       0.1897
    110  C         30.9590   26.7150   36.3920 C.2    60  THR60       0.2313
    111  O         31.9490   26.6010   37.1280 O.2    60  THR60      -0.2863
    112  CB        29.6560   28.8550   36.5120 C.3    60  THR60       0.1794
    113  OG1       30.8210   29.4940   37.0320 O.3    60  THR60      -0.2208
    114  CG2       28.4210   29.5590   37.0650 C.3    60  THR60       0.0378
    115  N         34.3810   26.7820   34.7040 N.3    62  GLY62      -0.1210
    116  CA        35.4240   27.7770   34.4780 C.3    62  GLY62       0.1956
    117  C         36.0810   27.6890   33.1080 C.2    62  GLY62       0.2611
    118  O         36.6500   28.6720   32.6320 O.2    62  GLY62      -0.2717
    119  N         36.0330   26.5120   32.4800 N.am   63  GLN63      -0.1979
    120  CA        36.6830   26.3200   31.1740 C.3    63  GLN63       0.1601
    121  C         36.1440   27.3370   30.1590 C.2    63  GLN63       0.2287
    122  O         34.9340   27.5640   30.0800 O.2    63  GLN63      -0.2864
    123  CB        36.5800   24.8610   30.6990 C.3    63  GLN63       0.0394
    124  CG        37.6600   23.9520   31.3280 C.3    63  GLN63       0.0908
    125  CD        37.4340   22.4570   31.1110 C.2    63  GLN63       0.2608
    126  OE1       36.3840   21.9130   31.4530 O.2    63  GLN63      -0.2717
    127  NE2       38.4390   21.7840   30.5630 N.am   63  GLN63      -0.0878
    128  N         40.8720   30.7800   47.5280 N.3   117  ASN117     -0.1225
    129  CA        40.7510   29.3600   47.8680 C.3   117  ASN117      0.1785
    130  C         42.0960   28.6000   47.8730 C.2   117  ASN117      0.2597
    131  O         43.1110   29.0910   47.3700 O.2   117  ASN117     -0.2718
    132  CB        39.7040   28.6910   46.9570 C.3   117  ASN117      0.1169
    133  CG        39.2970   27.2950   47.4390 C.2   117  ASN117      0.2627
    134  OD1       38.9050   27.1080   48.5840 O.2   117  ASN117     -0.2716
    135  ND2       39.3880   26.3170   46.5510 N.am  117  ASN117     -0.0877
    136  N         42.0710   27.4000   48.4500 N.am  118  LYS118     -0.1980
    137  CA        43.2520   26.5640   48.7060 C.3   118  LYS118      0.1596
    138  C         44.1960   27.2120   49.7130 C.2   118  LYS118      0.2287
    139  O         45.4160   27.0960   49.5940 O.2   118  LYS118     -0.2864
    140  CB        43.9910   26.1730   47.4110 C.3   118  LYS118      0.0298
    141  CG        43.0830   25.6790   46.2930 C.3   118  LYS118      0.0038
    142  CD        43.8600   25.0290   45.1710 C.3   118  LYS118      0.0206
    143  CE        42.9360   24.7920   43.9930 C.3   118  LYS118      0.1093
    144  NZ        43.6460   24.3050   42.7880 N.3   118  LYS118     -0.1314
    145  N         44.9430   26.3350   52.5240 N.3   120  ASP120     -0.1225
    146  CA        45.7300   25.2940   53.1990 C.3   120  ASP120      0.1805
    147  C         47.1200   25.1000   52.5630 C.2   120  ASP120      0.2597
    148  O         48.0300   24.5240   53.1760 O.2   120  ASP120     -0.2718
    149  CB        44.9540   23.9640   53.2300 C.3   120  ASP120      0.1424
    150  CG        44.5780   23.4620   51.8360 C.2   120  ASP120      0.3668
    151  OD1       43.6060   23.9870   51.2360 O.co2 120  ASP120     -0.2456
    152  OD2       45.2430   22.5280   51.3440 O.co2 120  ASP120     -0.2456
    153  N         47.2890   25.5930   51.3440 N.am  121  LEU121     -0.1979
    154  CA        48.5500   25.4280   50.6160 C.3   121  LEU121      0.1596
    155  C         49.4920   26.6240   50.8030 C.2   121  LEU121      0.2287
    156  O         49.9520   27.2480   49.8380 O.2   121  LEU121     -0.2864
    157  CB        48.2720   25.1370   49.1380 C.3   121  LEU121      0.0297
    158  CG        47.3820   23.9300   48.8220 C.3   121  LEU121      0.0022
    159  CD1       47.1230   23.8420   47.3230 C.3   121  LEU121      0.0001
    160  CD2       47.9790   22.6360   49.3460 C.3   121  LEU121      0.0001
    161  N         39.3760   27.2550   52.4000 N.3   147  SER147     -0.1202
    162  CA        39.8680   25.9360   52.0320 C.3   147  SER147      0.2020
    163  C         38.7110   24.9400   52.0150 C.2   147  SER147      0.2619
    164  O         38.1650   24.5870   53.0720 O.2   147  SER147     -0.2717
    165  CB        40.9630   25.4650   53.0040 C.3   147  SER147      0.2103
    166  OG        41.3400   24.1330   52.6890 O.3   147  SER147     -0.2182
    167  N         38.3350   24.4930   50.8130 N.am  148  ALA148     -0.1965
    168  CA        37.3630   23.4060   50.6650 C.3   148  ALA148      0.1728
    169  C         37.9020   22.1170   51.2720 C.2   148  ALA148      0.2616
    170  O         37.1400   21.3170   51.7990 O.2   148  ALA148     -0.2715
    171  CB        37.0260   23.1760   49.2100 C.3   148  ALA148      0.0334
    172  N         39.2160   21.9250   51.1910 N.am  149  LYS149     -0.1977
    173  CA        39.8590   20.7390   51.7300 C.3   149  LYS149      0.1596
    174  C         39.7470   20.6370   53.2570 C.2   149  LYS149      0.2287
    175  O         39.3860   19.5810   53.7830 O.2   149  LYS149     -0.2864
    176  CB        41.3230   20.6940   51.2970 C.3   149  LYS149      0.0298
    177  CG        42.0880   19.4730   51.7820 C.3   149  LYS149      0.0038
    178  CD        43.4900   19.5180   51.2060 C.3   149  LYS149      0.0206
    179  CE        44.2500   18.2530   51.4550 C.3   149  LYS149      0.1093
    180  NZ        45.6700   18.5310   51.1960 N.3   149  LYS149     -0.1314
@<TRIPOS>BOND
     1   122   121    2
     2   121   120    1
     3   127   125   am
     4   123   120    1
     5   123   124    1
     6   125   124    1
     7   125   126    2
     8   120   119    1
     9   119   117   am
    10   118   117    2
    11   117   116    1
    12    96    95    2
    13     6     5    1
    14    95    94    1
    15    90    91    1
    16    90    87    1
    17   116   115    1
    18     5     7    1
    19     5     2    1
    20    91    92    1
    21    89    88    2
    22    88    93   am
    23    88    87    1
    24    92    86    1
    25    94    93    1
    26    94    97    1
    27     1     2    1
    28    87    86    1
    29     2     3    1
    30    86    80   am
    31    99    97    1
    32   110   109    1
    33   110   111    2
    34    97    98    1
    35    85    83   am
    36   112   109    1
    37   112   113    1
    38   112   114    1
    39    82    83    1
    40    82    79    1
    41    83    84    2
    42     4     3    2
    43     3     8   am
    44   109   108    1
    45    80    79    1
    46    80    81    2
    47    79    78    1
    48     8     9    1
    49   103   102    2
    50    31    30    1
    51   108   102   am
    52    30    29    1
    53     9    10    1
    54   102   101    1
    55    78    72   am
    56    73    72    2
    57    29    28    1
    58    72    71    1
    59    10    12   am
    60    10    11    2
    61    12    13    1
    62   101   100    1
    63   101   104    1
    64    17    16    1
    65    37    36    1
    66   106   105   ar
    67   107   105   ar
    68   105   104    1
    69    18    16    1
    70    28    27    1
    71    71    70    1
    72    71    74    1
    73    16    13    1
    74    27    24    1
    75    13    14    1
    76    75    74    1
    77    75    77    1
    78    36    33    1
    79    74    76    1
    80    19    14   am
    81    19    20    1
    82    32    33    1
    83    32    25   am
    84    23    24    1
    85    23    21   am
    86    14    15    2
    87   144   143    1
    88    33    34    1
    89    24    25    1
    90    66    65    2
    91    25    26    2
    92    62    60   ar
    93    20    21    1
    94    21    22    2
    95    65    64    1
    96   143   142    1
    97    34    38   am
    98    34    35    2
    99    38    39    1
   100    60    61   ar
   101    60    59    1
   102    58    57    2
   103    43    42    1
   104   142   141    1
   105    64    67    1
   106    64    63    1
   107    59    56    1
   108    57    63   am
   109    57    56    1
   110    39    42    1
   111    39    40    1
   112    67    68    1
   113    63    69    1
   114   141   140    1
   115    56    55    1
   116   135   133   am
   117    68    69    1
   118   132   133    1
   119   132   129    1
   120    40    41    2
   121   159   158    1
   122   131   130    2
   123   140   137    1
   124    55    46   am
   125   133   134    2
   126   128   129    1
   127   129   130    1
   128   130   136   am
   129    54    52   ar
   130    54    53   ar
   131    52    50   ar
   132   136   137    1
   133    46    47    2
   134    46    45    1
   135   137   138    1
   136    53    51   ar
   137    50    49   ar
   138   158   157    1
   139   158   160    1
   140   157   154    1
   141   171   168    1
   142    45    48    1
   143    45    44    1
   144    51    49   ar
   145    49    48    1
   146   139   138    2
   147   156   155    2
   148   154   155    1
   149   154   153    1
   150   168   167    1
   151   168   169    1
   152   167   163   am
   153   172   169   am
   154   172   173    1
   155   180   179    1
   156   178   179    1
   157   178   177    1
   158   151   150   ar
   159   169   170    2
   160   176   173    1
   161   176   177    1
   162   153   147   am
   163   152   150   ar
   164   173   174    1
   165   150   149    1
   166   163   162    1
   167   163   164    2
   168   162   161    1
   169   162   165    1
   170   145   146    1
   171   147   148    2
   172   147   146    1
   173   166   165    1
   174   146   149    1
   175   174   175    2
