@<TRIPOS>MOLECULE
tmp/1yveC01.pdb
 129 120 0 0 0
SMALL
GASTEIGER

@<TRIPOS>ATOM
      1  N         48.0800   -7.9870   44.4550 N.3   117  ASP117     -0.1239
      2  CA        47.3220   -6.8130   44.0740 C.3   117  ASP117      0.1674
      3  C         45.8820   -7.1380   43.6780 C.2   117  ASP117      0.2266
      4  O         44.9640   -6.4050   44.0570 O.2   117  ASP117     -0.2867
      5  CB        48.0650   -6.0350   42.9750 C.3   117  ASP117      0.1410
      6  CG        49.4340   -5.5530   43.4390 C.2   117  ASP117      0.3668
      7  OD1       49.4800   -4.7010   44.3500 O.co2 117  ASP117     -0.2456
      8  OD2       50.4590   -6.0450   42.9030 O.co2 117  ASP117     -0.2456
      9  N         52.8420   -0.5560   46.6930 N.3   141  HIS141     -0.1241
     10  CA        52.5130   -0.3590   45.2740 C.3   141  HIS141      0.1621
     11  C         51.2160    0.4870   45.2560 C.2   141  HIS141      0.2264
     12  O         50.3740    0.3480   46.1480 O.2   141  HIS141     -0.2867
     13  CB        52.2860   -1.7350   44.6250 C.3   141  HIS141      0.0745
     14  CG        52.0810   -1.7140   43.1380 C.ar  141  HIS141      0.0817
     15  ND1       52.6240   -0.7570   42.3060 N.ar  141  HIS141     -0.2268
     16  CD2       51.4550   -2.6030   42.3250 C.ar  141  HIS141      0.1154
     17  CE1       52.3470   -1.0610   41.0480 C.ar  141  HIS141      0.1986
     18  NE2       51.6430   -2.1770   41.0310 N.ar  141  HIS141     -0.2212
     19  N         59.7230   -0.5290   47.4850 N.3   166  PRO166     -0.2102
     20  CA        61.0870   -0.9370   47.1260 C.3   166  PRO166      0.1504
     21  C         61.2180   -1.1220   45.6020 C.2   166  PRO166      0.2576
     22  O         60.4120   -1.8140   44.9820 O.2   166  PRO166     -0.2718
     23  CB        61.2470   -2.2700   47.8500 C.3   166  PRO166      0.0282
     24  CG        60.3700   -2.1080   49.0810 C.3   166  PRO166      0.0208
     25  CD        59.1390   -1.4600   48.4750 C.3   166  PRO166      0.0893
     26  N         62.2130   -0.4730   45.0010 N.am  167  LYS167     -0.1966
     27  CA        62.4430   -0.5990   43.5670 C.3   167  LYS167      0.1728
     28  C         63.4000   -1.7810   43.3810 C.2   167  LYS167      0.2617
     29  O         64.5380   -1.6330   42.9300 O.2   167  LYS167     -0.2715
     30  CB        63.0210    0.7080   42.9850 C.3   167  LYS167      0.0311
     31  CG        62.0990    1.9400   43.1240 C.3   167  LYS167      0.0038
     32  CD        60.8440    1.8360   42.2450 C.3   167  LYS167      0.0206
     33  CE        59.5410    1.9120   43.0640 C.3   167  LYS167      0.1093
     34  NZ        58.3400    1.4790   42.2470 N.3   167  LYS167     -0.1314
     35  N         62.9120   -2.9650   43.7410 N.am  168  GLY168     -0.1940
     36  CA        63.6930   -4.1910   43.6360 C.3   168  GLY168      0.2014
     37  C         62.8860   -5.3510   44.1890 C.2   168  GLY168      0.2638
     38  O         61.9410   -5.1350   44.9610 O.2   168  GLY168     -0.2714
     39  N         63.2530   -6.5800   43.8290 N.am  169  MET169     -0.1976
     40  CA        62.5110   -7.7540   44.2990 C.3   169  MET169      0.1605
     41  C         62.6730   -8.0500   45.7900 C.2   169  MET169      0.2287
     42  O         63.7060   -7.7400   46.3920 O.2   169  MET169     -0.2864
     43  CB        62.8530   -9.0100   43.4720 C.3   169  MET169      0.0413
     44  CG        64.3010   -9.5230   43.6030 C.3   169  MET169      0.0598
     45  SD        64.5040  -11.3090   43.2400 S.3   169  MET169     -0.1393
     46  CE        64.4080  -11.2980   41.4310 C.3   169  MET169      0.0692
     47  N         55.5000    1.8620   37.6990 N.3   230  ASP230     -0.1239
     48  CA        55.7650    0.5000   38.1590 C.3   230  ASP230      0.1674
     49  C         55.1610   -0.6440   37.3290 C.2   230  ASP230      0.2266
     50  O         55.8720   -1.5820   36.9420 O.2   230  ASP230     -0.2867
     51  CB        55.3530    0.3480   39.6320 C.3   230  ASP230      0.1410
     52  CG        55.8570   -0.9520   40.2450 C.2   230  ASP230      0.3668
     53  OD1       55.1850   -2.0100   40.0980 O.co2 230  ASP230     -0.2456
     54  OD2       56.9300   -0.9030   40.8750 O.co2 230  ASP230     -0.2456
     55  N         57.9340   -3.0770   34.9840 N.3   234  GLU234     -0.1245
     56  CA        58.1250   -4.5230   35.1160 C.3   234  GLU234      0.1567
     57  C         57.8030   -5.2560   33.7980 C.2   234  GLU234      0.2260
     58  O         58.3970   -6.3030   33.4920 O.2   234  GLU234     -0.2867
     59  CB        57.3170   -5.0820   36.3040 C.3   234  GLU234      0.0388
     60  CG        55.7990   -4.9620   36.1810 C.3   234  GLU234      0.1160
     61  CD        55.0890   -4.9050   37.5330 C.2   234  GLU234      0.3649
     62  OE1       55.7400   -4.5460   38.5390 O.co2 234  GLU234     -0.2457
     63  OE2       53.8790   -5.2030   37.5940 O.co2 234  GLU234     -0.2457
     64  N         62.6830   -4.1810   32.9670 N.3   238  LEU238     -0.1231
     65  CA        62.9170   -5.0380   34.1270 C.3   238  LEU238      0.1693
     66  C         62.6870   -6.5370   33.9660 C.2   238  LEU238      0.2591
     67  O         63.4680   -7.3360   34.4680 O.2   238  LEU238     -0.2718
     68  CB        62.1290   -4.5120   35.3370 C.3   238  LEU238      0.0284
     69  CG        62.3540   -3.0360   35.7050 C.3   238  LEU238      0.0019
     70  CD1       61.4530   -2.6690   36.8740 C.3   238  LEU238      0.0001
     71  CD2       63.8280   -2.7890   36.0740 C.3   238  LEU238      0.0001
     72  N         61.5750   -6.9330   33.3540 N.am  239  LEU239     -0.1980
     73  CA        61.2760   -8.3530   33.1790 C.3   239  LEU239      0.1596
     74  C         60.8140   -8.7490   31.7680 C.2   239  LEU239      0.2287
     75  O         61.5030   -9.4990   31.0660 O.2   239  LEU239     -0.2864
     76  CB        60.2030   -8.8030   34.1910 C.3   239  LEU239      0.0297
     77  CG        60.5020   -8.6520   35.6840 C.3   239  LEU239      0.0022
     78  CD1       59.2490   -9.0110   36.4880 C.3   239  LEU239      0.0001
     79  CD2       61.6910   -9.5460   36.0900 C.3   239  LEU239      0.0001
     80  N         63.5110    2.8400   38.0350 N.3   407  GLU407     -0.1245
     81  CA        62.6250    1.9630   37.2790 C.3   407  GLU407      0.1567
     82  C         63.2060    1.4250   35.9720 C.2   407  GLU407      0.2260
     83  O         62.8630    0.3200   35.5460 O.2   407  GLU407     -0.2867
     84  CB        61.3100    2.7110   36.9710 C.3   407  GLU407      0.0388
     85  CG        60.1540    1.8230   36.4960 C.3   407  GLU407      0.1160
     86  CD        59.6690    0.8490   37.5690 C.2   407  GLU407      0.3649
     87  OE1       59.6240    1.2450   38.7610 O.co2 407  GLU407     -0.2457
     88  OE2       59.3340   -0.3060   37.2310 O.co2 407  GLU407     -0.2457
     89  N         67.3100   -0.6850   39.1780 N.3   411  GLU411     -0.1245
     90  CA        66.6750   -1.9390   39.5730 C.3   411  GLU411      0.1567
     91  C         67.0960   -3.1400   38.7400 C.2   411  GLU411      0.2260
     92  O         67.3670   -4.2090   39.2880 O.2   411  GLU411     -0.2867
     93  CB        65.1510   -1.7980   39.5510 C.3   411  GLU411      0.0388
     94  CG        64.4370   -3.0590   40.0370 C.3   411  GLU411      0.1160
     95  CD        62.9740   -2.8260   40.3640 C.2   411  GLU411      0.3649
     96  OE1       62.5240   -1.6640   40.4210 O.co2 411  GLU411     -0.2457
     97  OE2       62.2820   -3.8430   40.5810 O.co2 411  GLU411     -0.2457
     98  N         67.5400   -7.2080   39.9000 N.3   416  LEU416     -0.1245
     99  CA        66.9970   -8.3140   39.1300 C.3   416  LEU416      0.1561
    100  C         67.9280   -9.1960   38.3270 C.2   416  LEU416      0.2260
    101  O         67.8600  -10.4210   38.4480 O.2   416  LEU416     -0.2867
    102  CB        65.9130   -7.7880   38.1980 C.3   416  LEU416      0.0270
    103  CG        64.8880   -6.8990   38.8890 C.3   416  LEU416      0.0019
    104  CD1       63.9230   -6.3720   37.8310 C.3   416  LEU416      0.0001
    105  CD2       64.1480   -7.6700   40.0030 C.3   416  LEU416      0.0001
    106  N         59.1980  -12.2550   41.7460 N.3   432  CYS432     -0.1221
    107  CA        58.5430  -10.9550   41.7740 C.3   432  CYS432      0.1808
    108  C         57.0440  -11.1880   42.0420 C.2   432  CYS432      0.2601
    109  O         56.6300  -12.3210   42.1870 O.2   432  CYS432     -0.2717
    110  CB        58.7950  -10.2060   40.4590 C.3   432  CYS432      0.0970
    111  SG        60.5870  -10.0100   40.0530 S.3   432  CYS432     -0.0800
    112  N         56.2430  -10.1260   42.0990 N.am  433  SER433     -0.1952
    113  CA        54.8130  -10.2440   42.4370 C.3   433  SER433      0.1924
    114  C         53.9270  -10.9190   41.3860 C.2   433  SER433      0.2314
    115  O         54.3170  -11.0740   40.2280 O.2   433  SER433     -0.2863
    116  CB        54.2270   -8.8540   42.7260 C.3   433  SER433      0.2116
    117  OG        53.9780   -8.1230   41.5150 O.3   433  SER433     -0.2180
    118  N         51.4470   -9.5700   40.0110 N.3   435  THR435     -0.1203
    119  CA        51.2420   -8.5360   38.9930 C.3   435  THR435      0.1994
    120  C         52.4130   -8.4990   37.9870 C.2   435  THR435      0.2617
    121  O         52.2000   -8.4510   36.7620 O.2   435  THR435     -0.2717
    122  CB        51.0170   -7.1380   39.6530 C.3   435  THR435      0.1784
    123  OG1       49.9180   -7.2140   40.5630 O.3   435  THR435     -0.2211
    124  CG2       50.6850   -6.0680   38.6130 C.3   435  THR435      0.0376
    125  N         53.6400   -8.6000   38.4980 N.am  436  ALA436     -0.1979
    126  CA        54.8270   -8.5830   37.6490 C.3   436  ALA436      0.1597
    127  C         54.9640   -9.8710   36.8420 C.2   436  ALA436      0.2287
    128  O         55.3730   -9.8350   35.6850 O.2   436  ALA436     -0.2864
    129  CB        56.0870   -8.3400   38.4910 C.3   436  ALA436      0.0319
@<TRIPOS>BOND
     1    75    74    2
     2    74    73    1
     3    64    65    1
     4    73    72    1
     5    73    76    1
     6    72    66   am
     7    58    57    2
     8    57    56    1
     9    66    65    1
    10    66    67    2
    11    65    68    1
    12    76    77    1
    13    55    56    1
    14    56    59    1
    15    68    69    1
    16    83    82    2
    17    77    79    1
    18    77    78    1
    19   128   127    2
    20    69    71    1
    21    69    70    1
    22    82    81    1
    23    60    59    1
    24    60    61    1
    25    85    84    1
    26    85    86    1
    27   121   120    2
    28   127   126    1
    29    50    49    2
    30    84    81    1
    31    88    86   ar
    32    81    80    1
    33    49    48    1
    34    61    63   ar
    35    61    62   ar
    36    86    87   ar
    37   126   129    1
    38   126   125    1
    39    47    48    1
    40   104   103    1
    41   120   125   am
    42   120   119    1
    43    48    51    1
    44   102   103    1
    45   102    99    1
    46   100   101    2
    47   100    99    1
    48   124   122    1
    49    91    92    2
    50    91    90    1
    51   103   105    1
    52   119   122    1
    53   119   118    1
    54    99    98    1
    55    89    90    1
    56    93    90    1
    57    93    94    1
    58    51    52    1
    59   122   123    1
    60    94    95    1
    61   111   110    1
    62    53    52   ar
    63   115   114    2
    64    52    54   ar
    65    95    96   ar
    66    95    97   ar
    67   110   107    1
    68    18    17   ar
    69    18    16   ar
    70    17    15   ar
    71   114   113    1
    72    46    45    1
    73   117   116    1
    74   106   107    1
    75   107   108    1
    76   108   112   am
    77   108   109    2
    78   112   113    1
    79    32    33    1
    80    32    31    1
    81    34    33    1
    82    15    14   ar
    83    16    14   ar
    84   113   116    1
    85     8     6   ar
    86    29    28    2
    87     5     6    1
    88     5     2    1
    89    30    31    1
    90    30    27    1
    91    14    13    1
    92    45    44    1
    93    28    27    1
    94    28    35   am
    95     6     7   ar
    96    43    44    1
    97    43    40    1
    98    27    26    1
    99    36    35    1
   100    36    37    1
   101     3     4    2
   102     3     2    1
   103    39    37   am
   104    39    40    1
   105     2     1    1
   106    37    38    2
   107    40    41    1
   108    13    10    1
   109    22    21    2
   110    26    21   am
   111    11    10    1
   112    11    12    2
   113    10     9    1
   114    21    20    1
   115    41    42    2
   116    20    19    1
   117    20    23    1
   118    19    25    1
   119    23    24    1
   120    25    24    1
