@<TRIPOS>MOLECULE
tmp/1yvfA00.pdb
 157 148 0 0 0
SMALL
GASTEIGER

@<TRIPOS>ATOM
      1  N        -13.3380   60.3300   42.0140 N.3   194  PHE194     -0.1241
      2  CA       -12.1770   60.9820   42.6080 C.3   194  PHE194      0.1605
      3  C        -12.1560   62.5130   42.6500 C.2   194  PHE194      0.2264
      4  O        -11.2500   63.0990   43.2470 O.2   194  PHE194     -0.2867
      5  CB       -10.9010   60.4420   41.9620 C.3   194  PHE194      0.0534
      6  CG       -10.7190   58.9560   42.1380 C.ar  194  PHE194     -0.0203
      7  CD1      -10.9660   58.0840   41.0950 C.ar  194  PHE194     -0.0042
      8  CD2      -10.3040   58.4310   43.3560 C.ar  194  PHE194     -0.0042
      9  CE1      -10.8020   56.7040   41.2560 C.ar  194  PHE194     -0.0003
     10  CE2      -10.1370   57.0460   43.5260 C.ar  194  PHE194     -0.0003
     11  CZ       -10.3900   56.1840   42.4680 C.ar  194  PHE194     -0.0000
     12  N        -14.4360   65.0610   47.6810 N.3   197  SER197     -0.1203
     13  CA       -13.8090   64.8780   48.9770 C.3   197  SER197      0.2005
     14  C        -14.9090   64.1770   49.7790 C.2   197  SER197      0.2460
     15  O        -16.0620   64.1280   49.3450 O.2   197  SER197     -0.2732
     16  CB       -13.4580   66.2300   49.6020 C.3   197  SER197      0.2103
     17  OG       -14.6110   67.0280   49.7570 O.3   197  SER197     -0.2182
     18  N        -14.5730   63.6160   50.9430 N.am  198  PRO198     -0.2728
     19  CA       -15.6000   62.9360   51.7340 C.3   198  PRO198      0.1401
     20  C        -16.9270   63.6990   51.7680 C.2   198  PRO198      0.2269
     21  O        -17.9680   63.1740   51.3800 O.2   198  PRO198     -0.2865
     22  CB       -14.9480   62.8290   53.1010 C.3   198  PRO198      0.0296
     23  CG       -13.5080   62.6150   52.7470 C.3   198  PRO198      0.0237
     24  CD       -13.2880   63.6450   51.6600 C.3   198  PRO198      0.0939
     25  N        -18.6110   63.5290   48.4150 N.3   201  ARG201     -0.1245
     26  CA       -19.1500   62.2340   48.0220 C.3   201  ARG201      0.1563
     27  C        -20.4790   62.0230   48.7540 C.2   201  ARG201      0.2260
     28  O        -21.4870   61.6770   48.1330 O.2   201  ARG201     -0.2867
     29  CB       -18.1590   61.1050   48.3540 C.3   201  ARG201      0.0307
     30  CG       -18.4510   59.7810   47.6300 C.3   201  ARG201      0.0489
     31  CD       -17.4530   58.6810   48.0110 C.3   201  ARG201      0.2205
     32  NE       -17.9070   57.3670   47.5750 N.pl3 201  ARG201     -0.0865
     33  CZ       -17.7900   56.8940   46.3420 C.cat 201  ARG201      0.5346
     34  NH1      -17.2190   57.6250   45.3920 N.pl3 201  ARG201      0.1354
     35  NH2      -18.2530   55.6850   46.0560 N.pl3 201  ARG201      0.1354
     36  N        -15.2570   54.7560   40.6940 N.3   317  ASN317     -0.1240
     37  CA       -13.9300   54.9380   41.3030 C.3   317  ASN317      0.1653
     38  C        -13.1290   53.6870   40.9670 C.2   317  ASN317      0.2266
     39  O        -13.1990   52.6940   41.6920 O.2   317  ASN317     -0.2867
     40  CB       -13.9940   55.0480   42.8280 C.3   317  ASN317      0.1155
     41  CG       -14.4460   56.4050   43.3060 C.2   317  ASN317      0.2627
     42  OD1      -15.6260   56.7520   43.2110 O.2   317  ASN317     -0.2716
     43  ND2      -13.5070   57.1850   43.8320 N.am  317  ASN317     -0.0877
     44  N        -20.3880   51.0620   48.7740 N.3   366  SER366     -0.1202
     45  CA       -19.5900   51.3640   47.5880 C.3   366  SER366      0.2020
     46  C        -18.3170   52.0010   48.1150 C.2   366  SER366      0.2619
     47  O        -18.3580   52.8420   49.0110 O.2   366  SER366     -0.2717
     48  CB       -20.3170   52.3080   46.6210 C.3   366  SER366      0.2103
     49  OG       -20.4970   53.5900   47.1720 O.3   366  SER366     -0.2182
     50  N        -17.1850   51.5820   47.5700 N.am  367  CYS367     -0.1969
     51  CA       -15.9010   52.0850   48.0120 C.3   367  CYS367      0.1712
     52  C        -15.7430   51.7260   49.4930 C.2   367  CYS367      0.2296
     53  O        -15.3480   52.5440   50.3280 O.2   367  CYS367     -0.2864
     54  CB       -15.8040   53.6010   47.7700 C.3   367  CYS367      0.0983
     55  SG       -15.4380   54.0460   46.0200 S.3   367  CYS367     -0.0798
     56  N        -17.6880   51.5020   51.8300 N.3   369  SER369     -0.1217
     57  CA       -18.3570   52.3100   52.8270 C.3   369  SER369      0.1889
     58  C        -19.8460   52.4840   52.5920 C.2   369  SER369      0.2288
     59  O        -20.3610   52.2160   51.5080 O.2   369  SER369     -0.2866
     60  CB       -17.7020   53.6930   52.8700 C.3   369  SER369      0.2089
     61  OG       -16.2960   53.6030   52.7310 O.3   369  SER369     -0.2183
     62  N        -19.9570   59.3200   55.8970 N.3   385  LEU385     -0.1245
     63  CA       -19.5760   57.9920   55.4000 C.3   385  LEU385      0.1561
     64  C        -18.8330   57.1880   56.4620 C.2   385  LEU385      0.2260
     65  O        -18.0620   57.7480   57.2350 O.2   385  LEU385     -0.2867
     66  CB       -18.6920   58.1380   54.1640 C.3   385  LEU385      0.0270
     67  CG       -19.5150   58.3300   52.8980 C.3   385  LEU385      0.0019
     68  CD1      -18.6890   58.9510   51.8080 C.3   385  LEU385      0.0001
     69  CD2      -20.0670   56.9690   52.4800 C.3   385  LEU385      0.0001
     70  N        -17.7740   52.6630   57.7040 N.3   387  ARG387     -0.1245
     71  CA       -17.5950   51.2740   57.2950 C.3   387  ARG387      0.1563
     72  C        -17.3600   50.4620   58.5470 C.2   387  ARG387      0.2260
     73  O        -17.2140   51.0310   59.6220 O.2   387  ARG387     -0.2867
     74  CB       -16.3690   51.1280   56.3840 C.3   387  ARG387      0.0307
     75  CG       -15.0420   51.5010   57.0520 C.3   387  ARG387      0.0489
     76  CD       -13.8270   51.0380   56.2210 C.3   387  ARG387      0.2205
     77  NE       -13.5580   49.6080   56.3830 N.pl3 387  ARG387     -0.0865
     78  CZ       -12.8280   48.8740   55.5450 C.cat 387  ARG387      0.5346
     79  NH1      -12.2830   49.4280   54.4700 N.pl3 387  ARG387      0.1354
     80  NH2      -12.6560   47.5750   55.7720 N.pl3 387  ARG387      0.1354
     81  N         -1.7220   53.7350   57.9560 N.3   408  SER408     -0.1217
     82  CA        -3.0700   53.7460   57.4180 C.3   408  SER408      0.1889
     83  C         -3.9960   54.4040   58.4340 C.2   408  SER408      0.2288
     84  O         -5.0170   54.9830   58.0650 O.2   408  SER408     -0.2866
     85  CB        -3.5440   52.3210   57.1260 C.3   408  SER408      0.2089
     86  OG        -3.6460   51.5630   58.3180 O.3   408  SER408     -0.2183
     87  N         -4.5360   57.9290   57.7190 N.3   411  GLY411     -0.1210
     88  CA        -5.3200   58.0340   56.5050 C.3   411  GLY411      0.1956
     89  C         -6.7710   57.7960   56.8560 C.2   411  GLY411      0.2611
     90  O         -7.6550   58.5290   56.4100 O.2   411  GLY411     -0.2717
     91  N         -7.0120   56.7770   57.6780 N.am  412  ASN412     -0.1974
     92  CA        -8.3620   56.4490   58.0950 C.3   412  ASN412      0.1688
     93  C         -8.9710   57.5820   58.9120 C.2   412  ASN412      0.2292
     94  O        -10.1730   57.8590   58.8210 O.2   412  ASN412     -0.2864
     95  CB        -8.3650   55.1280   58.8630 C.3   412  ASN412      0.1181
     96  CG        -8.3550   53.9280   57.9290 C.2   412  ASN412      0.2629
     97  OD1       -9.0930   53.9020   56.9450 O.2   412  ASN412     -0.2716
     98  ND2       -7.5320   52.9290   58.2310 N.am  412  ASN412     -0.0877
     99  N         -9.9880   60.0880   56.2580 N.3   415  MET415     -0.1230
    100  CA       -11.1160   59.6390   55.4480 C.3   415  MET415      0.1702
    101  C        -12.3810   59.4280   56.2650 C.2   415  MET415      0.2592
    102  O        -13.4830   59.6350   55.7630 O.2   415  MET415     -0.2718
    103  CB       -10.7590   58.3400   54.7200 C.3   415  MET415      0.0401
    104  CG        -9.8010   58.5130   53.5650 C.3   415  MET415      0.0596
    105  SD       -10.6020   59.1730   52.0930 S.3   415  MET415     -0.1393
    106  CE       -10.4520   60.9900   52.4000 C.3   415  MET415      0.0692
    107  N        -12.2190   59.0340   57.5260 N.am  416  TYR416     -0.1976
    108  CA       -13.3660   58.7690   58.3870 C.3   416  TYR416      0.1639
    109  C        -13.4390   59.5800   59.6820 C.2   416  TYR416      0.2290
    110  O        -13.9830   59.1080   60.6840 O.2   416  TYR416     -0.2864
    111  CB       -13.4140   57.2720   58.7160 C.3   416  TYR416      0.0560
    112  CG       -13.5540   56.3920   57.4910 C.ar  416  TYR416     -0.0198
    113  CD1      -12.4440   55.7640   56.9210 C.ar  416  TYR416     -0.0009
    114  CD2      -14.8070   56.1770   56.9080 C.ar  416  TYR416     -0.0009
    115  CE1      -12.5830   54.9290   55.7960 C.ar  416  TYR416      0.0417
    116  CE2      -14.9610   55.3500   55.7900 C.ar  416  TYR416      0.0417
    117  CZ       -13.8520   54.7260   55.2440 C.ar  416  TYR416      0.1957
    118  OH       -14.0310   53.8690   54.1870 O.3   416  TYR416     -0.2866
    119  N         -1.5390   57.4770   52.3440 N.3   447  GLN447     -0.1231
    120  CA        -2.0260   57.6030   50.9900 C.3   447  GLN447      0.1698
    121  C         -3.4790   58.0030   50.9150 C.2   447  GLN447      0.2592
    122  O         -4.2900   57.6340   51.7650 O.2   447  GLN447     -0.2718
    123  CB        -1.7740   56.3060   50.2340 C.3   447  GLN447      0.0381
    124  CG        -0.2860   56.0890   49.9590 C.3   447  GLN447      0.0905
    125  CD         0.0320   54.7340   49.3460 C.2   447  GLN447      0.2608
    126  OE1        1.1710   54.4780   48.9530 O.2   447  GLN447     -0.2717
    127  NE2       -0.9680   53.8590   49.2660 N.am  447  GLN447     -0.0878
    128  N         -3.7830   58.7890   49.8910 N.am  448  ILE448     -0.1966
    129  CA        -5.1200   59.2770   49.6340 C.3   448  ILE448      0.1727
    130  C         -5.3250   59.1910   48.1290 C.2   448  ILE448      0.2616
    131  O         -4.6350   59.8640   47.3640 O.2   448  ILE448     -0.2715
    132  CB        -5.2660   60.7340   50.0960 C.3   448  ILE448      0.0290
    133  CG1       -5.1960   60.7930   51.6220 C.3   448  ILE448      0.0022
    134  CG2       -6.5790   61.3170   49.5940 C.3   448  ILE448      0.0023
    135  CD1       -5.2540   62.1960   52.1770 C.3   448  ILE448      0.0001
    136  N         -6.2790   58.3620   47.7170 N.am  449  TYR449     -0.1960
    137  CA        -6.5720   58.1370   46.3070 C.3   449  TYR449      0.1771
    138  C         -5.3220   57.6100   45.6160 C.2   449  TYR449      0.2620
    139  O         -5.0730   57.8900   44.4450 O.2   449  TYR449     -0.2715
    140  CB        -7.0510   59.4220   45.6350 C.3   449  TYR449      0.0574
    141  CG        -8.5060   59.7660   45.8930 C.ar  449  TYR449     -0.0198
    142  CD1       -9.0600   60.9280   45.3720 C.ar  449  TYR449     -0.0009
    143  CD2       -9.3300   58.9310   46.6650 C.ar  449  TYR449     -0.0009
    144  CE1      -10.3840   61.2620   45.6050 C.ar  449  TYR449      0.0417
    145  CE2      -10.6640   59.2580   46.9040 C.ar  449  TYR449      0.0417
    146  CZ       -11.1810   60.4300   46.3710 C.ar  449  TYR449      0.1957
    147  OH       -12.4850   60.7980   46.6130 O.3   449  TYR449     -0.2866
    148  N         -4.5320   56.8490   46.3660 N.am  450  GLY450     -0.1954
    149  CA        -3.3230   56.2750   45.8180 C.3   450  GLY450      0.1869
    150  C         -2.0770   57.1460   45.8820 C.2   450  GLY450      0.2309
    151  O         -0.9640   56.6270   45.8460 O.2   450  GLY450     -0.2863
    152  N         -4.0040   55.2770   42.4190 N.3   557  SER557     -0.1217
    153  CA        -3.6790   54.0200   43.0610 C.3   557  SER557      0.1889
    154  C         -2.7770   53.1790   42.1670 C.2   557  SER557      0.2288
    155  O         -3.0490   53.0020   40.9810 O.2   557  SER557     -0.2866
    156  CB        -4.9580   53.2590   43.3960 C.3   557  SER557      0.2089
    157  OG        -4.6580   52.0860   44.1300 O.3   557  SER557     -0.2183
@<TRIPOS>BOND
     1    36    37    1
     2    38    37    1
     3    38    39    2
     4   155   154    2
     5     7     9   ar
     6     7     6   ar
     7     9    11   ar
     8    37    40    1
     9     5     6    1
    10     5     2    1
    11     1     2    1
    12     6     8   ar
    13   154   153    1
    14   152   153    1
    15    11    10   ar
    16     2     3    1
    17     3     4    2
    18    40    41    1
    19   153   156    1
    20    42    41    2
    21    41    43   am
    22     8    10   ar
    23   156   157    1
    24   139   138    2
    25   142   144   ar
    26   142   141   ar
    27    34    33    1
    28   144   146   ar
    29   138   137    1
    30   138   148   am
    31   140   141    1
    32   140   137    1
    33   149   150    1
    34   149   148    1
    35   151   150    2
    36   141   143   ar
    37    55    54    1
    38    35    33    1
    39   137   136    1
    40    33    32    2
    41   146   147    1
    42   146   145   ar
    43    48    49    1
    44    48    45    1
    45   143   145   ar
    46   131   130    2
    47    50    51    1
    48    50    46   am
    49    32    31    1
    50    45    46    1
    51    45    44    1
    52    30    31    1
    53    30    29    1
    54    12    13    1
    55   136   130   am
    56    54    51    1
    57    51    52    1
    58    26    29    1
    59    26    25    1
    60    26    27    1
    61    46    47    2
    62   130   129    1
    63    28    27    2
    64   126   125    2
    65    13    16    1
    66    13    14    1
    67   127   125   am
    68    15    14    2
    69   125   124    1
    70    52    53    2
    71   134   132    1
    72    16    17    1
    73   129   128    1
    74   129   132    1
    75    14    18   am
    76   128   121   am
    77   124   123    1
    78   132   133    1
    79   123   120    1
    80   121   120    1
    81   121   122    2
    82    18    24    1
    83    18    19    1
    84   120   119    1
    85    21    20    2
    86    59    58    2
    87   133   135    1
    88    24    23    1
    89    19    20    1
    90    19    22    1
    91    68    67    1
    92    56    57    1
    93   105   106    1
    94   105   104    1
    95    69    67    1
    96    58    57    1
    97    61    60    1
    98    23    22    1
    99    57    60    1
   100    67    66    1
   101   104   103    1
   102    66    63    1
   103   118   117    1
   104    79    78    1
   105   103   100    1
   106   117   116   ar
   107   117   115   ar
   108    63    62    1
   109    63    64    1
   110   100    99    1
   111   100   101    1
   112    78    80    1
   113    78    77    2
   114   102   101    2
   115   116   114   ar
   116   115   113   ar
   117    76    77    1
   118    76    75    1
   119   101   107   am
   120    74    75    1
   121    74    71    1
   122    90    89    2
   123    64    65    2
   124    88    89    1
   125    88    87    1
   126    89    91   am
   127   114   112   ar
   128   113   112   ar
   129    97    96    2
   130    85    82    1
   131    85    86    1
   132    71    70    1
   133    71    72    1
   134    82    81    1
   135    82    83    1
   136   112   111    1
   137   107   108    1
   138    91    92    1
   139    96    98   am
   140    96    95    1
   141    84    83    2
   142    92    95    1
   143    92    93    1
   144   108   111    1
   145   108   109    1
   146    72    73    2
   147    94    93    2
   148   109   110    2
