@<TRIPOS>MOLECULE
tmp/1yvhA00.pdb
 200 197 0 0 0
SMALL
GASTEIGER

@<TRIPOS>ATOM
      1  N         75.7160   32.9930   -3.3990 N.3    31  LYS31      -0.1231
      2  CA        74.5080   32.5270   -2.7360 C.3    31  LYS31       0.1693
      3  C         73.4630   33.6190   -2.8400 C.2    31  LYS31       0.2592
      4  O         73.7850   34.8040   -2.7420 O.2    31  LYS31      -0.2718
      5  CB        74.7860   32.2050   -1.2600 C.3    31  LYS31       0.0285
      6  CG        73.6210   31.4990   -0.5570 C.3    31  LYS31       0.0035
      7  CD        73.9130   31.1300    0.8970 C.3    31  LYS31       0.0206
      8  CE        72.6620   30.5480    1.5370 C.3    31  LYS31       0.1093
      9  NZ        72.7950   30.3100    2.9930 N.3    31  LYS31      -0.1314
     10  N         72.2140   33.2190   -3.0530 N.am   32  ASN32      -0.1960
     11  CA        71.1210   34.1730   -3.1540 C.3    32  ASN32       0.1819
     12  C         70.6800   34.5450   -1.7470 C.2    32  ASN32       0.2622
     13  O         69.6250   34.1200   -1.2700 O.2    32  ASN32      -0.2715
     14  CB        69.9500   33.5710   -3.9410 C.3    32  ASN32       0.1195
     15  CG        69.3480   32.3580   -3.2620 C.2    32  ASN32       0.2630
     16  OD1       70.0670   31.4410   -2.8610 O.2    32  ASN32      -0.2716
     17  ND2       68.0240   32.3450   -3.1320 N.am   32  ASN32      -0.0877
     18  N         71.5130   35.3390   -1.0850 N.am   33  SER33      -0.1936
     19  CA        71.2420   35.8000    0.2650 C.3    33  SER33       0.2040
     20  C         71.7060   37.2490    0.3960 C.2    33  SER33       0.2485
     21  O         72.7090   37.6490   -0.1940 O.2    33  SER33      -0.2729
     22  CB        71.9770   34.9230    1.2840 C.3    33  SER33       0.2129
     23  OG        73.3800   35.0750    1.1770 O.3    33  SER33      -0.2179
     24  N         70.9670   38.0590    1.1580 N.am   34  PRO34      -0.2726
     25  CA        71.3310   39.4660    1.3460 C.3    34  PRO34       0.1402
     26  C         72.7190   39.5890    1.9840 C.2    34  PRO34       0.2269
     27  O         73.0040   38.9290    2.9800 O.2    34  PRO34      -0.2865
     28  CB        70.2290   39.9850    2.2630 C.3    34  PRO34       0.0296
     29  CG        69.0390   39.1360    1.8740 C.3    34  PRO34       0.0237
     30  CD        69.6680   37.7570    1.7850 C.3    34  PRO34       0.0939
     31  N         72.7030   40.4610   -1.9930 N.3    36  TYR36      -0.1241
     32  CA        72.8170   39.7080   -3.2400 C.3    36  TYR36       0.1605
     33  C         72.8920   40.6930   -4.4050 C.2    36  TYR36       0.2264
     34  O         71.8900   41.2800   -4.8060 O.2    36  TYR36      -0.2867
     35  CB        71.6040   38.7790   -3.3730 C.3    36  TYR36       0.0534
     36  CG        71.6720   37.7530   -4.4890 C.ar   36  TYR36      -0.0201
     37  CD1       72.8860   37.1750   -4.8640 C.ar   36  TYR36      -0.0009
     38  CD2       70.5050   37.3030   -5.1160 C.ar   36  TYR36      -0.0009
     39  CE1       72.9390   36.1690   -5.8340 C.ar   36  TYR36       0.0417
     40  CE2       70.5450   36.2920   -6.0860 C.ar   36  TYR36       0.0417
     41  CZ        71.7660   35.7340   -6.4350 C.ar   36  TYR36       0.1957
     42  OH        71.8240   34.7360   -7.3710 O.3    36  TYR36      -0.2866
     43  N         72.9730   40.3480   -7.4700 N.3    38  LEU38      -0.1231
     44  CA        72.0650   40.0270   -8.5760 C.3    38  LEU38       0.1693
     45  C         70.6480   40.5870   -8.3750 C.2    38  LEU38       0.2592
     46  O         69.8600   40.6450   -9.3220 O.2    38  LEU38      -0.2718
     47  CB        72.0070   38.5090   -8.7890 C.3    38  LEU38       0.0284
     48  CG        72.8500   37.9200   -9.9280 C.3    38  LEU38       0.0019
     49  CD1       73.9200   38.9010  -10.3690 C.3    38  LEU38       0.0001
     50  CD2       73.4650   36.6090   -9.4880 C.3    38  LEU38       0.0001
     51  N         70.3290   40.9860   -7.1440 N.am   39  ASP39      -0.1974
     52  CA        69.0260   41.5850   -6.8290 C.3    39  ASP39       0.1709
     53  C         69.2150   43.0950   -6.7320 C.2    39  ASP39       0.2293
     54  O         68.4650   43.8710   -7.3150 O.2    39  ASP39      -0.2864
     55  CB        68.4950   41.1300   -5.4610 C.3    39  ASP39       0.1436
     56  CG        67.8000   39.7860   -5.5000 C.2    39  ASP39       0.3671
     57  OD1       67.6450   39.2120   -6.5960 O.co2  39  ASP39      -0.2456
     58  OD2       67.3980   39.3130   -4.4130 O.co2  39  ASP39      -0.2456
     59  N         69.6150   45.3380  -10.1330 N.3    42  PRO42      -0.2102
     60  CA        68.3490   45.4970  -10.8580 C.3    42  PRO42       0.1504
     61  C         67.3750   46.3350  -10.0310 C.2    42  PRO42       0.2575
     62  O         66.6460   47.1640  -10.5740 O.2    42  PRO42      -0.2718
     63  CB        67.8740   44.0590  -11.0440 C.3    42  PRO42       0.0282
     64  CG        69.1700   43.3070  -11.1820 C.3    42  PRO42       0.0208
     65  CD        70.0050   43.9190  -10.0660 C.3    42  PRO42       0.0893
     66  N         67.3640   46.1220   -8.7140 N.am   43  ASP43      -0.1974
     67  CA        66.4850   46.8930   -7.8370 C.3    43  ASP43       0.1708
     68  C         66.8810   48.3680   -7.8330 C.2    43  ASP43       0.2293
     69  O         66.0300   49.2460   -7.7040 O.2    43  ASP43      -0.2864
     70  CB        66.5320   46.3620   -6.4020 C.3    43  ASP43       0.1436
     71  CG        65.7680   45.0670   -6.2330 C.2    43  ASP43       0.3671
     72  OD1       65.1950   44.5700   -7.2290 O.co2  43  ASP43      -0.2456
     73  OD2       65.7430   44.5480   -5.0970 O.co2  43  ASP43      -0.2456
     74  N         75.9260   38.2330    6.6910 N.3   227  TYR227     -0.1227
     75  CA        75.3980   37.1210    7.4550 C.3   227  TYR227      0.1736
     76  C         76.2060   35.8590    7.1600 C.2   227  TYR227      0.2595
     77  O         76.6420   35.1680    8.0800 O.2   227  TYR227     -0.2718
     78  CB        73.9200   36.9090    7.0880 C.3   227  TYR227      0.0548
     79  CG        73.2640   35.7340    7.7640 C.ar  227  TYR227     -0.0200
     80  CD1       73.5460   34.4270    7.3650 C.ar  227  TYR227     -0.0009
     81  CD2       72.3510   35.9250    8.8000 C.ar  227  TYR227     -0.0009
     82  CE1       72.9300   33.3330    7.9780 C.ar  227  TYR227      0.0417
     83  CE2       71.7290   34.8400    9.4230 C.ar  227  TYR227      0.0417
     84  CZ        72.0260   33.5480    9.0000 C.ar  227  TYR227      0.1957
     85  OH        71.4070   32.4780    9.5960 O.3   227  TYR227     -0.2866
     86  N         76.4040   35.5570    5.8780 N.am  228  ASP228     -0.1974
     87  CA        77.1570   34.3650    5.5030 C.3   228  ASP228      0.1709
     88  C         78.6130   34.3950    5.9760 C.2   228  ASP228      0.2293
     89  O         79.1670   33.3620    6.3480 O.2   228  ASP228     -0.2864
     90  CB        77.1070   34.1500    3.9850 C.3   228  ASP228      0.1436
     91  CG        75.7180   33.7730    3.4960 C.2   228  ASP228      0.3671
     92  OD1       74.9280   33.2250    4.3020 O.co2 228  ASP228     -0.2456
     93  OD2       75.4170   34.0120    2.3030 O.co2 228  ASP228     -0.2456
     94  N         77.7570   42.5420   14.0840 N.3   247  ARG247     -0.1245
     95  CA        77.9300   43.4320   12.9350 C.3   247  ARG247      0.1563
     96  C         76.6370   44.1880   12.6490 C.2   247  ARG247      0.2260
     97  O         75.6170   43.9570   13.2960 O.2   247  ARG247     -0.2867
     98  CB        78.2230   42.5710   11.7080 C.3   247  ARG247      0.0307
     99  CG        77.0930   41.5410   11.5090 C.3   247  ARG247      0.0489
    100  CD        77.0950   40.7810   10.1910 C.3   247  ARG247      0.2205
    101  NE        75.9980   39.8140   10.1900 N.pl3 247  ARG247     -0.0865
    102  CZ        74.8150   40.0000    9.6040 C.cat 247  ARG247      0.5346
    103  NH1       74.5610   41.1210    8.9340 N.pl3 247  ARG247      0.1354
    104  NH2       73.8580   39.0830    9.7330 N.pl3 247  ARG247      0.1354
    105  N         73.3110   44.8300   10.7820 N.3   249  SER249     -0.1202
    106  CA        72.4010   43.9940   10.0190 C.3   249  SER249      0.2020
    107  C         72.3280   44.6530    8.6520 C.2   249  SER249      0.2619
    108  O         72.2760   45.8750    8.5410 O.2   249  SER249     -0.2717
    109  CB        70.9950   43.9860   10.6260 C.3   249  SER249      0.2103
    110  OG        70.0460   43.6050    9.6380 O.3   249  SER249     -0.2182
    111  N         72.3120   43.8380    7.6130 N.am  250  CYS250     -0.1955
    112  CA        72.2530   44.3490    6.2600 C.3   250  CYS250      0.1843
    113  C         70.8170   44.6650    5.7900 C.2   250  CYS250      0.2626
    114  O         70.6080   45.5980    5.0090 O.2   250  CYS250     -0.2714
    115  CB        72.9580   43.3300    5.3600 C.3   250  CYS250      0.0997
    116  SG        72.3660   43.1200    3.7210 S.3   250  CYS250     -0.0797
    117  N         69.8320   43.9080    6.2700 N.am  251  THR251     -0.1936
    118  CA        68.4370   44.1300    5.8710 C.3   251  THR251      0.2028
    119  C         67.6400   44.9620    6.8820 C.2   251  THR251      0.2642
    120  O         66.5540   45.4560    6.5820 O.2   251  THR251     -0.2714
    121  CB        67.7130   42.7820    5.6180 C.3   251  THR251      0.1808
    122  OG1       67.6730   42.0130    6.8270 O.3   251  THR251     -0.2208
    123  CG2       68.4590   41.9810    4.5490 C.3   251  THR251      0.0379
    124  N         68.1800   45.1090    8.0850 N.am  252  ARG252     -0.1977
    125  CA        67.5470   45.9200    9.1180 C.3   252  ARG252      0.1597
    126  C         68.5810   46.9890    9.4420 C.2   252  ARG252      0.2287
    127  O         69.1160   47.0370   10.5550 O.2   252  ARG252     -0.2864
    128  CB        67.2770   45.0790   10.3540 C.3   252  ARG252      0.0334
    129  CG        66.8300   43.6840   10.0030 C.3   252  ARG252      0.0492
    130  CD        65.4090   43.4250   10.3990 C.3   252  ARG252      0.2205
    131  NE        65.0260   42.0710   10.0180 N.pl3 252  ARG252     -0.0865
    132  CZ        63.9790   41.4260   10.5090 C.cat 252  ARG252      0.5346
    133  NH1       63.2060   42.0100   11.4200 N.pl3 252  ARG252      0.1354
    134  NH2       63.6930   40.2010   10.0750 N.pl3 252  ARG252      0.1354
    135  N         73.2190   42.6840   14.4950 N.3   257  ALA257     -0.1245
    136  CA        73.0260   41.2570   14.2650 C.3   257  ALA257      0.1562
    137  C         74.1660   40.5810   15.0200 C.2   257  ALA257      0.2260
    138  O         75.3470   40.8160   14.7210 O.2   257  ALA257     -0.2867
    139  CB        73.1190   40.9340   12.7700 C.3   257  ALA257      0.0290
    140  N         76.3310   33.7490   17.1520 N.3   260  TYR260     -0.1241
    141  CA        76.9350   32.9930   18.2400 C.3   260  TYR260      0.1605
    142  C         76.7550   31.4860   18.1110 C.2   260  TYR260      0.2264
    143  O         75.8100   31.0060   17.4830 O.2   260  TYR260     -0.2867
    144  CB        76.3720   33.4460   19.5880 C.3   260  TYR260      0.0534
    145  CG        74.8810   33.2220   19.7410 C.ar  260  TYR260     -0.0201
    146  CD1       73.9650   34.0030   19.0390 C.ar  260  TYR260     -0.0009
    147  CD2       74.3880   32.2320   20.5910 C.ar  260  TYR260     -0.0009
    148  CE1       72.5880   33.8090   19.1820 C.ar  260  TYR260      0.0417
    149  CE2       73.0120   32.0290   20.7430 C.ar  260  TYR260      0.0417
    150  CZ        72.1230   32.8210   20.0370 C.ar  260  TYR260      0.1957
    151  OH        70.7670   32.6410   20.1930 O.3   260  TYR260     -0.2866
    152  N         73.7070   30.6080   15.3760 N.3   268  LEU268     -0.1231
    153  CA        72.5590   31.4700   15.1680 C.3   268  LEU268      0.1693
    154  C         72.9480   32.9370   15.1250 C.2   268  LEU268      0.2592
    155  O         74.0130   33.3260   15.5940 O.2   268  LEU268     -0.2718
    156  CB        71.5530   31.2610   16.3020 C.3   268  LEU268      0.0284
    157  CG        71.2200   29.8010   16.6490 C.3   268  LEU268      0.0019
    158  CD1       70.3180   29.7570   17.8760 C.3   268  LEU268      0.0001
    159  CD2       70.5520   29.1360   15.4560 C.3   268  LEU268      0.0001
    160  N         72.0690   33.7440   14.5480 N.am  269  GLN269     -0.1966
    161  CA        72.2840   35.1730   14.4830 C.3   269  GLN269      0.1733
    162  C         70.9670   35.7970   14.9030 C.2   269  GLN269      0.2617
    163  O         69.8950   35.4320   14.4030 O.2   269  GLN269     -0.2715
    164  CB        72.7040   35.5900   13.0700 C.3   269  GLN269      0.0408
    165  CG        74.0390   34.9460   12.6630 C.3   269  GLN269      0.0908
    166  CD        74.6220   35.5210   11.3900 C.2   269  GLN269      0.2608
    167  OE1       74.7760   36.7340   11.2640 O.2   269  GLN269     -0.2717
    168  NE2       74.9690   34.6490   10.4440 N.am  269  GLN269     -0.0878
    169  N         71.0480   36.7290   15.8410 N.am  270  THR270     -0.1937
    170  CA        69.8570   37.3790   16.3450 C.3   270  THR270      0.2028
    171  C         70.0010   38.8920   16.2530 C.2   270  THR270      0.2642
    172  O         71.1140   39.4210   16.2480 O.2   270  THR270     -0.2714
    173  CB        69.6080   36.9840   17.8200 C.3   270  THR270      0.1808
    174  OG1       68.3710   37.5500   18.2680 O.3   270  THR270     -0.2208
    175  CG2       70.7220   37.5050   18.6940 C.3   270  THR270      0.0379
    176  N         68.8700   39.5780   16.1790 N.am  271  ILE271     -0.1963
    177  CA        68.8500   41.0270   16.1050 C.3   271  ILE271      0.1712
    178  C         68.1970   41.5170   17.3910 C.2   271  ILE271      0.2458
    179  O         67.0020   41.3200   17.6030 O.2   271  ILE271     -0.2730
    180  CB        68.0440   41.5030   14.8820 C.3   271  ILE271      0.0289
    181  CG1       68.7500   41.0500   13.6000 C.3   271  ILE271      0.0022
    182  CG2       67.8990   43.0200   14.8990 C.3   271  ILE271      0.0023
    183  CD1       68.0160   41.4220   12.3300 C.3   271  ILE271      0.0001
    184  N         68.9850   42.1400   18.2820 N.am  272  PRO272     -0.2716
    185  CA        68.4600   42.6480   19.5540 C.3   272  PRO272      0.1536
    186  C         67.3530   43.6700   19.3330 C.2   272  PRO272      0.2598
    187  O         67.3580   44.3860   18.3350 O.2   272  PRO272     -0.2715
    188  CB        69.6860   43.2920   20.2090 C.3   272  PRO272      0.0310
    189  CG        70.8360   42.5800   19.5900 C.3   272  PRO272      0.0237
    190  CD        70.4200   42.4420   18.1520 C.3   272  PRO272      0.0939
    191  N         66.4110   43.7260   20.2690 N.am  273  HIS273     -0.1974
    192  CA        65.3080   44.6790   20.2120 C.3   273  HIS273      0.1656
    193  C         65.0780   45.2760   21.6020 C.2   273  HIS273      0.2291
    194  O         65.3480   44.6360   22.6180 O.2   273  HIS273     -0.2864
    195  CB        64.0240   43.9960   19.7300 C.3   273  HIS273      0.0771
    196  CG        64.1560   43.3390   18.3920 C.ar  273  HIS273      0.0820
    197  ND1       64.0490   41.9750   18.2200 N.ar  273  HIS273     -0.2267
    198  CD2       64.4110   43.8540   17.1660 C.ar  273  HIS273      0.1154
    199  CE1       64.2350   41.6790   16.9450 C.ar  273  HIS273      0.1986
    200  NE2       64.4580   42.8020   16.2840 N.ar  273  HIS273     -0.2212
@<TRIPOS>BOND
     1    64    63    1
     2    64    65    1
     3    63    60    1
     4    60    59    1
     5    60    61    1
     6    62    61    2
     7    49    48    1
     8    59    65    1
     9    61    66   am
    10    48    50    1
    11    48    47    1
    12    46    45    2
    13    47    44    1
    14    66    67    1
    15    44    45    1
    16    44    43    1
    17    45    51   am
    18    67    68    1
    19    67    70    1
    20    68    69    2
    21    42    41    1
    22    54    53    2
    23    72    71   ar
    24    51    52    1
    25    52    53    1
    26    52    55    1
    27    57    56   ar
    28    41    40   ar
    29    41    39   ar
    30    70    71    1
    31    71    73   ar
    32    40    38   ar
    33    39    37   ar
    34    56    55    1
    35    56    58   ar
    36    38    36   ar
    37    37    36   ar
    38    34    33    2
    39    36    35    1
    40    33    32    1
    41    14    15    1
    42    14    11    1
    43     1     2    1
    44    35    32    1
    45    15    17   am
    46    15    16    2
    47    32    31    1
    48    11    10    1
    49    11    12    1
    50    10     3   am
    51     3     4    2
    52     3     2    1
    53     2     5    1
    54    12    13    2
    55    12    18   am
    56     5     6    1
    57    18    19    1
    58     6     7    1
    59    21    20    2
    60    19    20    1
    61    19    22    1
    62    20    24   am
    63     7     8    1
    64    24    25    1
    65    24    30    1
    66    23    22    1
    67    25    26    1
    68    25    28    1
    69     8     9    1
    70    30    29    1
    71    29    28    1
    72    26    27    2
    73    93    91   ar
    74    91    90    1
    75    91    92   ar
    76   116   115    1
    77    90    87    1
    78   123   121    1
    79   114   113    2
    80   115   112    1
    81    87    86    1
    82    87    88    1
    83   121   118    1
    84   121   122    1
    85   113   112    1
    86   113   117   am
    87   118   117    1
    88   118   119    1
    89    86    76   am
    90    88    89    2
    91   112   111    1
    92   120   119    2
    93    74    75    1
    94   119   124   am
    95    78    75    1
    96    78    79    1
    97    76    75    1
    98    76    77    2
    99    80    79   ar
   100    80    82   ar
   101   111   107   am
   102    79    81   ar
   103    82    84   ar
   104   124   125    1
   105   108   107    2
   106   107   106    1
   107    81    83   ar
   108   103   102    1
   109    84    83   ar
   110    84    85    1
   111   125   126    1
   112   125   128    1
   113   126   127    2
   114   102   104    1
   115   102   101    2
   116   110   109    1
   117   129   128    1
   118   129   130    1
   119   131   130    1
   120   131   132    2
   121   106   109    1
   122   106   105    1
   123   134   132    1
   124   101   100    1
   125   100    99    1
   126   168   166   am
   127   132   133    1
   128   167   166    2
   129   166   165    1
   130    99    98    1
   131    98    95    1
   132   183   181    1
   133    96    95    1
   134    96    97    2
   135   165   164    1
   136   139   136    1
   137    95    94    1
   138   164   161    1
   139   181   180    1
   140   136   135    1
   141   136   137    1
   142   163   162    2
   143   161   160    1
   144   161   162    1
   145   160   154   am
   146   138   137    2
   147   180   182    1
   148   180   177    1
   149   162   169   am
   150   154   153    1
   151   154   155    2
   152   153   152    1
   153   153   156    1
   154   159   157    1
   155   169   170    1
   156   177   176    1
   157   177   178    1
   158   176   171   am
   159   172   171    2
   160   171   170    1
   161   200   199   ar
   162   200   198   ar
   163   156   157    1
   164   170   173    1
   165   157   158    1
   166   199   197   ar
   167   140   141    1
   168   198   196   ar
   169   178   179    2
   170   178   184   am
   171   143   142    2
   172   173   174    1
   173   173   175    1
   174   142   141    1
   175   190   184    1
   176   190   189    1
   177   197   196   ar
   178   141   144    1
   179   184   185    1
   180   187   186    2
   181   196   195    1
   182   146   148   ar
   183   146   145   ar
   184   148   150   ar
   185   186   185    1
   186   186   191   am
   187   185   188    1
   188   144   145    1
   189   189   188    1
   190   195   192    1
   191   145   147   ar
   192   150   151    1
   193   150   149   ar
   194   192   191    1
   195   192   193    1
   196   147   149   ar
   197   193   194    2
