@<TRIPOS>MOLECULE
tmp/1yvjA02.pdb
 192 183 0 0 0
SMALL
GASTEIGER

@<TRIPOS>ATOM
      1  N          8.7910  -14.8200    0.8150 N.3    15  LEU15      -0.1231
      2  CA         9.2560  -13.9600   -0.2680 C.3    15  LEU15       0.1693
      3  C          8.3470  -12.7410   -0.4430 C.2    15  LEU15       0.2593
      4  O          8.7870  -11.6150   -0.6750 O.2    15  LEU15      -0.2718
      5  CB         9.3420  -14.7420   -1.5940 C.3    15  LEU15       0.0284
      6  CG        10.4060  -15.8440   -1.7080 C.3    15  LEU15       0.0019
      7  CD1       10.4850  -16.3360   -3.1610 C.3    15  LEU15       0.0001
      8  CD2       11.7690  -15.3130   -1.2400 C.3    15  LEU15       0.0001
      9  N          7.0510  -12.9850   -0.2870 N.am   16  GLY16      -0.1942
     10  CA         6.0990  -11.9030   -0.4380 C.3    16  GLY16       0.2014
     11  C          4.6860  -12.3010   -0.0970 C.2    16  GLY16       0.2639
     12  O          4.3370  -13.4840   -0.0610 O.2    16  GLY16      -0.2714
     13  N          3.8820  -11.2740    0.1350 N.am   17  LYS17      -0.1963
     14  CA         2.4800  -11.3890    0.4960 C.3    17  LYS17       0.1728
     15  C          1.5940  -10.5550   -0.4440 C.2    17  LYS17       0.2616
     16  O          2.0020   -9.4970   -0.9170 O.2    17  LYS17      -0.2715
     17  CB         2.3230  -10.8910    1.9400 C.3    17  LYS17       0.0311
     18  CG         1.2380  -11.5640    2.7620 C.3    17  LYS17       0.0038
     19  CD         1.2720  -11.0870    4.2280 C.3    17  LYS17       0.0206
     20  CE         0.2680  -11.8460    5.1190 C.3    17  LYS17       0.1093
     21  NZ         0.1860  -11.3400    6.5320 N.3    17  LYS17      -0.1314
     22  N          0.3910  -11.0320   -0.7360 N.am   18  GLY18      -0.1955
     23  CA        -0.4830  -10.2610   -1.6030 C.3    18  GLY18       0.1869
     24  C         -1.7590   -9.9410   -0.8550 C.2    18  GLY18       0.2309
     25  O         -1.9040  -10.3570    0.2980 O.2    18  GLY18      -0.2863
     26  N          0.1200  -15.9270   -1.1490 N.3    22  SER22      -0.1202
     27  CA         1.4920  -15.4830   -0.9510 C.3    22  SER22       0.2020
     28  C          2.5290  -16.3290   -1.6650 C.2    22  SER22       0.2618
     29  O          2.2190  -17.3370   -2.3040 O.2    22  SER22      -0.2717
     30  CB         1.8340  -15.4210    0.5450 C.3    22  SER22       0.2103
     31  OG         2.0900  -16.7070    1.0740 O.3    22  SER22      -0.2182
     32  N          3.7730  -15.8970   -1.5480 N.am   23  VAL23      -0.1979
     33  CA         4.9040  -16.5550   -2.1790 C.3    23  VAL23       0.1595
     34  C          6.0230  -16.7620   -1.1930 C.2    23  VAL23       0.2287
     35  O          6.4540  -15.8250   -0.5320 O.2    23  VAL23      -0.2864
     36  CB         5.4400  -15.6980   -3.3590 C.3    23  VAL23       0.0276
     37  CG1        6.6640  -16.3600   -3.9910 C.3    23  VAL23       0.0022
     38  CG2        4.3320  -15.4850   -4.3930 C.3    23  VAL23       0.0022
     39  N         10.5140  -20.9070   -5.7610 N.3    40  ALA40      -0.1245
     40  CA         9.5120  -19.9380   -5.3760 C.3    40  ALA40       0.1562
     41  C          8.1450  -20.5780   -5.5100 C.2    40  ALA40       0.2260
     42  O          7.7070  -20.9850   -6.5920 O.2    40  ALA40      -0.2867
     43  CB         9.6170  -18.6970   -6.2400 C.3    40  ALA40       0.0290
     44  N          4.1060  -20.2340   -4.6640 N.3    42  LYS42      -0.1245
     45  CA         2.9450  -19.4600   -4.2990 C.3    42  LYS42       0.1561
     46  C          1.7800  -20.3450   -3.9260 C.2    42  LYS42       0.2260
     47  O          1.5950  -21.4350   -4.4680 O.2    42  LYS42      -0.2867
     48  CB         2.5250  -18.5380   -5.4440 C.3    42  LYS42       0.0271
     49  CG         1.1120  -17.9610   -5.3040 C.3    42  LYS42       0.0035
     50  CD         0.8390  -16.9610   -6.4200 C.3    42  LYS42       0.0206
     51  CE        -0.6080  -16.4690   -6.4760 C.3    42  LYS42       0.1093
     52  NZ        -0.8090  -15.5890   -7.6820 N.3    42  LYS42      -0.1314
     53  N         -4.2510  -19.8410  -13.6870 N.3    58  GLU58      -0.1245
     54  CA        -2.9780  -19.1350  -13.5590 C.3    58  GLU58       0.1567
     55  C         -1.8060  -20.0760  -13.7500 C.2    58  GLU58       0.2260
     56  O         -0.7880  -19.7570  -14.3540 O.2    58  GLU58      -0.2867
     57  CB        -2.8580  -18.4920  -12.1740 C.3    58  GLU58       0.0388
     58  CG        -1.5180  -17.8040  -11.9270 C.3    58  GLU58       0.1160
     59  CD        -1.3480  -17.3350  -10.4910 C.2    58  GLU58       0.3649
     60  OE1       -2.3270  -17.4000   -9.7180 O.co2  58  GLU58      -0.2457
     61  OE2       -0.2370  -16.8960  -10.1340 O.co2  58  GLU58      -0.2457
     62  N          9.0670  -15.1210  -15.8540 N.3    71  VAL71      -0.1245
     63  CA         9.4240  -16.0350  -14.7890 C.3    71  VAL71       0.1561
     64  C          9.0700  -17.4740  -15.1290 C.2    71  VAL71       0.2260
     65  O          7.9240  -17.8040  -15.4170 O.2    71  VAL71      -0.2867
     66  CB         8.7560  -15.6310  -13.4570 C.3    71  VAL71       0.0252
     67  CG1        7.2440  -15.7740  -13.5510 C.3    71  VAL71       0.0019
     68  CG2        9.3310  -16.4690  -12.3300 C.3    71  VAL71       0.0019
     69  N          7.6840  -22.1640   -9.0260 N.3    89  MET89      -0.1230
     70  CA         8.4140  -21.4210  -10.0270 C.3    89  MET89       0.1702
     71  C          9.8840  -21.3070   -9.6910 C.2    89  MET89       0.2592
     72  O         10.3230  -21.6140   -8.5790 O.2    89  MET89      -0.2718
     73  CB         7.8300  -20.0130  -10.1430 C.3    89  MET89       0.0401
     74  CG         6.3160  -19.9810  -10.2740 C.3    89  MET89       0.0596
     75  SD         5.5870  -18.4340   -9.6800 S.3    89  MET89      -0.1393
     76  CE         5.8840  -18.5490   -7.9070 C.3    89  MET89       0.0692
     77  N         10.6610  -20.8750  -10.6760 N.am   90  GLU90      -0.1966
     78  CA        12.0660  -20.6700  -10.4280 C.3    90  GLU90       0.1733
     79  C         12.2430  -19.5620   -9.3950 C.2    90  GLU90       0.2616
     80  O         11.3440  -18.7510   -9.1440 O.2    90  GLU90      -0.2715
     81  CB        12.7990  -20.2820  -11.7250 C.3    90  GLU90       0.0429
     82  CG        12.3740  -18.9370  -12.3300 C.3    90  GLU90       0.1163
     83  CD        13.2110  -18.5270  -13.5450 C.2    90  GLU90       0.3649
     84  OE1       14.4450  -18.7150  -13.5090 O.co2  90  GLU90      -0.2457
     85  OE2       12.6420  -18.0020  -14.5260 O.co2  90  GLU90      -0.2457
     86  N         13.4020  -19.5630   -8.7700 N.am   91  TYR91      -0.1960
     87  CA        13.7250  -18.5460   -7.7980 C.3    91  TYR91       0.1771
     88  C         14.8610  -17.6780   -8.3100 C.2    91  TYR91       0.2619
     89  O         15.8810  -18.1810   -8.7860 O.2    91  TYR91      -0.2715
     90  CB        14.1010  -19.2160   -6.4670 C.3    91  TYR91       0.0574
     91  CG        14.7130  -18.3050   -5.4220 C.ar   91  TYR91      -0.0198
     92  CD1       14.0390  -17.1710   -4.9680 C.ar   91  TYR91      -0.0009
     93  CD2       15.9510  -18.6110   -4.8530 C.ar   91  TYR91      -0.0009
     94  CE1       14.5810  -16.3680   -3.9650 C.ar   91  TYR91       0.0417
     95  CE2       16.5020  -17.8130   -3.8500 C.ar   91  TYR91       0.0417
     96  CZ        15.8080  -16.6940   -3.4090 C.ar   91  TYR91       0.1957
     97  OH        16.3180  -15.9130   -2.3990 O.3    91  TYR91      -0.2866
     98  N         14.6390  -16.3710   -8.2760 N.am   92  LEU92      -0.1964
     99  CA        15.6330  -15.3960   -8.7090 C.3    92  LEU92       0.1713
    100  C         16.1400  -14.5570   -7.5400 C.2    92  LEU92       0.2458
    101  O         15.5710  -13.5260   -7.1820 O.2    92  LEU92      -0.2730
    102  CB        15.0560  -14.4850   -9.7980 C.3    92  LEU92       0.0310
    103  CG        14.8520  -15.0970  -11.1860 C.3    92  LEU92       0.0022
    104  CD1       13.5420  -15.8690  -11.2340 C.3    92  LEU92       0.0001
    105  CD2       14.8220  -13.9880  -12.2270 C.3    92  LEU92       0.0001
    106  N         17.2410  -15.0030   -6.9300 N.am   93  PRO93      -0.2727
    107  CA        17.9180  -14.3890   -5.7860 C.3    93  PRO93       0.1402
    108  C         18.0930  -12.8630   -5.8010 C.2    93  PRO93       0.2269
    109  O         17.9630  -12.2110   -4.7660 O.2    93  PRO93      -0.2865
    110  CB        19.2600  -15.1150   -5.7490 C.3    93  PRO93       0.0296
    111  CG        18.9310  -16.4530   -6.3170 C.3    93  PRO93       0.0237
    112  CD        18.0680  -16.0890   -7.4870 C.3    93  PRO93       0.0939
    113  N         16.2450  -10.6440   -6.5440 N.3    95  GLY95      -0.1210
    114  CA        15.0360   -9.9280   -6.1650 C.3    95  GLY95       0.1956
    115  C         14.2720   -9.1740   -7.2370 C.2    95  GLY95       0.2612
    116  O         14.5060   -9.3750   -8.4280 O.2    95  GLY95      -0.2717
    117  N         13.3520   -8.3030   -6.8260 N.am   96  CYS96      -0.1970
    118  CA        12.5780   -7.5640   -7.8120 C.3    96  CYS96       0.1712
    119  C         13.2200   -6.2650   -8.2670 C.2    96  CYS96       0.2296
    120  O         14.0290   -5.6470   -7.5710 O.2    96  CYS96      -0.2864
    121  CB        11.1280   -7.3330   -7.3280 C.3    96  CYS96       0.0983
    122  SG        10.8010   -6.1330   -6.0120 S.3    96  CYS96      -0.0798
    123  N         12.1820   -3.2580   -8.5470 N.3    98  ARG98      -0.1231
    124  CA        11.9670   -2.1410   -7.6420 C.3    98  ARG98       0.1694
    125  C         13.1380   -1.8820   -6.6770 C.2    98  ARG98       0.2592
    126  O         13.7900   -0.8420   -6.7350 O.2    98  ARG98      -0.2718
    127  CB        10.6890   -2.3740   -6.8360 C.3    98  ARG98       0.0321
    128  CG        10.3010   -1.2400   -5.9120 C.3    98  ARG98       0.0489
    129  CD         9.2050   -1.7090   -4.9800 C.3    98  ARG98       0.2205
    130  NE         9.7010   -2.7460   -4.0840 N.pl3  98  ARG98      -0.0865
    131  CZ         8.9290   -3.4920   -3.3020 C.cat  98  ARG98       0.5346
    132  NH1        7.6150   -3.3180   -3.3060 N.pl3  98  ARG98       0.1354
    133  NH2        9.4700   -4.4120   -2.5140 N.pl3  98  ARG98       0.1354
    134  N         13.3960   -2.8440   -5.7960 N.am   99  ASP99      -0.1974
    135  CA        14.4960   -2.7200   -4.8410 C.3    99  ASP99       0.1709
    136  C         15.8620   -2.6400   -5.5390 C.2    99  ASP99       0.2293
    137  O         16.7570   -1.9060   -5.1210 O.2    99  ASP99      -0.2864
    138  CB        14.5190   -3.9020   -3.8590 C.3    99  ASP99       0.1436
    139  CG        13.1740   -4.1540   -3.1980 C.2    99  ASP99       0.3671
    140  OD1       12.6870   -3.2890   -2.4390 O.co2  99  ASP99      -0.2456
    141  OD2       12.6010   -5.2350   -3.4440 O.co2  99  ASP99      -0.2456
    142  N          7.5460   -3.4640   -9.3400 N.3   140  ARG140     -0.1231
    143  CA         7.5090   -4.4010   -8.2180 C.3   140  ARG140      0.1694
    144  C          7.2350   -5.8410   -8.6870 C.2   140  ARG140      0.2592
    145  O          7.4390   -6.7970   -7.9430 O.2   140  ARG140     -0.2718
    146  CB         6.4220   -3.9860   -7.2070 C.3   140  ARG140      0.0321
    147  CG         5.0390   -3.8360   -7.8540 C.3   140  ARG140      0.0489
    148  CD         3.8960   -3.4870   -6.8990 C.3   140  ARG140      0.2205
    149  NE         2.9800   -4.6200   -6.7970 N.pl3 140  ARG140     -0.0865
    150  CZ         1.8870   -4.8060   -7.5380 C.cat 140  ARG140      0.5346
    151  NH1        1.5120   -3.9250   -8.4590 N.pl3 140  ARG140      0.1354
    152  NH2        1.1980   -5.9280   -7.3900 N.pl3 140  ARG140      0.1354
    153  N          6.7770   -5.9830   -9.9360 N.am  141  ASN141     -0.1974
    154  CA         6.4580   -7.2980  -10.5070 C.3   141  ASN141      0.1688
    155  C          7.4570   -7.8450  -11.5050 C.2   141  ASN141      0.2292
    156  O          7.2130   -8.8390  -12.1980 O.2   141  ASN141     -0.2864
    157  CB         5.0760   -7.2960  -11.1530 C.3   141  ASN141      0.1181
    158  CG         3.9700   -7.3770  -10.1370 C.2   141  ASN141      0.2629
    159  OD1        4.2210   -7.6080   -8.9570 O.2   141  ASN141     -0.2716
    160  ND2        2.7340   -7.2020  -10.5870 N.am  141  ASN141     -0.0877
    161  N         11.2990   -9.2190  -11.9430 N.3   143  LEU143     -0.1245
    162  CA        12.3780   -9.8360  -11.2100 C.3   143  LEU143      0.1561
    163  C         13.6940   -9.8090  -11.9650 C.2   143  LEU143      0.2260
    164  O         13.7340   -9.6730  -13.1860 O.2   143  LEU143     -0.2867
    165  CB        11.9930  -11.2720  -10.8440 C.3   143  LEU143      0.0270
    166  CG        10.6330  -11.4570  -10.1520 C.3   143  LEU143      0.0019
    167  CD1       10.5130  -12.8990   -9.7090 C.3   143  LEU143      0.0001
    168  CD2       10.4900  -10.5330   -8.9360 C.3   143  LEU143      0.0001
    169  N          6.9960  -11.1740  -13.5390 N.3   153  ALA153     -0.1231
    170  CA         6.4220  -12.0950  -12.5860 C.3   153  ALA153      0.1694
    171  C          4.9680  -11.8230  -12.2310 C.2   153  ALA153      0.2592
    172  O          4.3160  -10.9290  -12.7770 O.2   153  ALA153     -0.2718
    173  CB         7.2760  -12.1140  -11.3350 C.3   153  ALA153      0.0304
    174  N          4.4760  -12.6280  -11.2990 N.am  154  ASP154     -0.1960
    175  CA         3.1040  -12.5500  -10.8190 C.3   154  ASP154      0.1840
    176  C          2.0420  -12.4950  -11.9120 C.2   154  ASP154      0.2622
    177  O          1.7500  -11.4480  -12.4920 O.2   154  ASP154     -0.2715
    178  CB         2.9180  -11.3540   -9.8820 C.3   154  ASP154      0.1450
    179  CG         1.5780  -11.3850   -9.1620 C.2   154  ASP154      0.3671
    180  OD1        1.3410  -10.5310   -8.2800 O.co2 154  ASP154     -0.2456
    181  OD2        0.7590  -12.2750   -9.4860 O.co2 154  ASP154     -0.2456
    182  N          1.4690  -13.6580  -12.1880 N.am  155  PHE155     -0.1974
    183  CA         0.4090  -13.7730  -13.1720 C.3   155  PHE155      0.1639
    184  C         -0.8960  -14.1530  -12.5180 C.2   155  PHE155      0.2290
    185  O         -1.7790  -14.8050  -13.0810 O.2   155  PHE155     -0.2864
    186  CB         0.8040  -14.7960  -14.2300 C.3   155  PHE155      0.0560
    187  CG         1.8810  -14.3130  -15.1580 C.ar  155  PHE155     -0.0200
    188  CD1        1.5530  -13.7420  -16.3840 C.ar  155  PHE155     -0.0042
    189  CD2        3.2260  -14.4320  -14.8130 C.ar  155  PHE155     -0.0042
    190  CE1        2.5420  -13.3060  -17.2580 C.ar  155  PHE155     -0.0003
    191  CE2        4.2250  -13.9950  -15.6800 C.ar  155  PHE155     -0.0003
    192  CZ         3.8790  -13.4350  -16.9070 C.ar  155  PHE155     -0.0000
@<TRIPOS>BOND
     1   190   192   ar
     2   190   188   ar
     3   192   191   ar
     4   188   187   ar
     5    62    63    1
     6   191   189   ar
     7    65    64    2
     8   187   189   ar
     9   187   186    1
    10    64    63    1
    11    63    66    1
    12    85    83   ar
    13    56    55    2
    14   186   183    1
    15    55    54    1
    16    53    54    1
    17    54    57    1
    18    67    66    1
    19    83    84   ar
    20    83    82    1
    21   169   170    1
    22    66    68    1
    23   164   163    2
    24   183   184    1
    25   183   182    1
    26   185   184    2
    27   172   171    2
    28   170   171    1
    29   170   173    1
    30   177   176    2
    31    82    81    1
    32   171   174   am
    33   105   103    1
    34   156   155    2
    35   182   176   am
    36    57    58    1
    37   163   162    1
    38   161   162    1
    39    58    59    1
    40   176   175    1
    41    81    78    1
    42   155   154    1
    43   174   175    1
    44   104   103    1
    45   162   165    1
    46   103   102    1
    47   157   154    1
    48   157   158    1
    49   165   166    1
    50   175   178    1
    51    77    78    1
    52    77    71   am
    53   160   158   am
    54   154   153    1
    55    59    61   ar
    56    59    60   ar
    57    78    79    1
    58    74    73    1
    59    74    75    1
    60   166   167    1
    61   166   168    1
    62    73    70    1
    63   158   159    2
    64    70    71    1
    65    70    69    1
    66   153   144   am
    67   178   179    1
    68   102    99    1
    69    71    72    2
    70    75    76    1
    71   181   179   ar
    72    79    80    2
    73    79    86   am
    74   142   143    1
    75   179   180   ar
    76    89    88    2
    77    86    87    1
    78    99    98    1
    79    99   100    1
    80   144   143    1
    81   144   145    2
    82   123   124    1
    83   151   150    1
    84   116   115    2
    85    88    98   am
    86    88    87    1
    87   119   118    1
    88   119   120    2
    89   143   146    1
    90   147   146    1
    91   147   148    1
    92   118   121    1
    93   118   117    1
    94    87    90    1
    95    52    51    1
    96   124   127    1
    97   124   125    1
    98   100   101    2
    99   100   106   am
   100   150   152    1
   101   150   149    2
   102   112   106    1
   103   112   111    1
   104   121   122    1
   105   115   117   am
   106   115   114    1
   107   106   107    1
   108   148   149    1
   109   127   128    1
   110   126   125    2
   111   125   134   am
   112    42    41    2
   113   113   114    1
   114    51    50    1
   115    90    91    1
   116    50    49    1
   117   111   110    1
   118    43    40    1
   119   128   129    1
   120   108   107    1
   121   108   109    2
   122   134   135    1
   123   107   110    1
   124    39    40    1
   125   136   137    2
   126   136   135    1
   127    41    40    1
   128    48    49    1
   129    48    45    1
   130    91    92   ar
   131    91    93   ar
   132   129   130    1
   133    92    94   ar
   134    93    95   ar
   135   135   138    1
   136    44    45    1
   137    47    46    2
   138    38    36    1
   139    45    46    1
   140   130   131    2
   141    37    36    1
   142    94    96   ar
   143   138   139    1
   144    95    96   ar
   145   141   139   ar
   146    96    97    1
   147    36    33    1
   148   132   131    1
   149   131   133    1
   150   139   140   ar
   151     7     6    1
   152    29    28    2
   153    33    32    1
   154    33    34    1
   155     6     5    1
   156     6     8    1
   157    28    32   am
   158    28    27    1
   159    23    24    1
   160    23    22    1
   161     5     2    1
   162    34    35    2
   163    26    27    1
   164    27    30    1
   165    16    15    2
   166    24    25    2
   167    22    15   am
   168     4     3    2
   169    15    14    1
   170     3     9   am
   171     3     2    1
   172    10     9    1
   173    10    11    1
   174     2     1    1
   175    11    12    2
   176    11    13   am
   177    13    14    1
   178    14    17    1
   179    30    31    1
   180    17    18    1
   181    18    19    1
   182    19    20    1
   183    20    21    1
