@<TRIPOS>MOLECULE
tmp/1yvjA00.pdb
 91 87 0 0 0
SMALL
GASTEIGER

@<TRIPOS>ATOM
      1  N          7.0510  -12.9850   -0.2870 N.3    16  GLY16      -0.1210
      2  CA         6.0990  -11.9030   -0.4380 C.3    16  GLY16       0.1956
      3  C          4.6860  -12.3010   -0.0970 C.2    16  GLY16       0.2612
      4  O          4.3370  -13.4840   -0.0610 O.2    16  GLY16      -0.2717
      5  N          3.8820  -11.2740    0.1350 N.am   17  LYS17      -0.1965
      6  CA         2.4800  -11.3890    0.4960 C.3    17  LYS17       0.1728
      7  C          1.5940  -10.5550   -0.4440 C.2    17  LYS17       0.2617
      8  O          2.0020   -9.4970   -0.9170 O.2    17  LYS17      -0.2715
      9  CB         2.3230  -10.8910    1.9400 C.3    17  LYS17       0.0311
     10  CG         1.2380  -11.5640    2.7620 C.3    17  LYS17       0.0038
     11  CD         1.2720  -11.0870    4.2280 C.3    17  LYS17       0.0206
     12  CE         0.2680  -11.8460    5.1190 C.3    17  LYS17       0.1093
     13  NZ         0.1860  -11.3400    6.5320 N.3    17  LYS17      -0.1314
     14  N          0.3910  -11.0320   -0.7360 N.am   18  GLY18      -0.1940
     15  CA        -0.4830  -10.2610   -1.6030 C.3    18  GLY18       0.2014
     16  C         -1.7590   -9.9410   -0.8550 C.2    18  GLY18       0.2639
     17  O         -1.9040  -10.3570    0.2980 O.2    18  GLY18      -0.2714
     18  N         -2.6690   -9.1860   -1.4740 N.am   19  ASN19      -0.1958
     19  CA        -3.9400   -8.8910   -0.8180 C.3    19  ASN19       0.1819
     20  C         -4.5270  -10.2050   -0.3140 C.2    19  ASN19       0.2621
     21  O         -5.2020  -10.2980    0.7140 O.2    19  ASN19      -0.2715
     22  CB        -4.9080   -8.2050   -1.7970 C.3    19  ASN19       0.1195
     23  CG        -4.5050   -6.7670   -2.1110 C.2    19  ASN19       0.2630
     24  OD1       -4.1140   -6.0190   -1.2130 O.2    19  ASN19      -0.2716
     25  ND2       -4.6150   -6.3740   -3.3770 N.am   19  ASN19      -0.0877
     26  N         -4.2020  -11.2320   -1.0860 N.am   20  PHE20      -0.1960
     27  CA        -4.5490  -12.6150   -0.8210 C.3    20  PHE20       0.1771
     28  C         -3.4550  -13.5420   -1.3640 C.2    20  PHE20       0.2620
     29  O         -2.7240  -13.1790   -2.2900 O.2    20  PHE20      -0.2715
     30  CB        -5.9280  -12.9690   -1.4130 C.3    20  PHE20       0.0574
     31  CG        -6.1020  -12.6200   -2.8740 C.ar   20  PHE20      -0.0200
     32  CD1       -5.4220  -13.3230   -3.8650 C.ar   20  PHE20      -0.0042
     33  CD2       -6.9780  -11.6030   -3.2540 C.ar   20  PHE20      -0.0042
     34  CE1       -5.6160  -13.0210   -5.2150 C.ar   20  PHE20      -0.0003
     35  CE2       -7.1780  -11.2940   -4.5980 C.ar   20  PHE20      -0.0003
     36  CZ        -6.4960  -12.0030   -5.5800 C.ar   20  PHE20      -0.0000
     37  N         -3.3140  -14.7190   -0.7660 N.am   21  GLY21      -0.1940
     38  CA        -2.2880  -15.6450   -1.2050 C.3    21  GLY21       0.2014
     39  C         -0.8950  -15.0960   -0.9480 C.2    21  GLY21       0.2640
     40  O         -0.7310  -13.9390   -0.5550 O.2    21  GLY21      -0.2714
     41  N          0.1200  -15.9270   -1.1490 N.am   22  SER22      -0.1935
     42  CA         1.4920  -15.4830   -0.9510 C.3    22  SER22       0.2055
     43  C          2.5290  -16.3290   -1.6650 C.2    22  SER22       0.2642
     44  O          2.2190  -17.3370   -2.3040 O.2    22  SER22      -0.2714
     45  CB         1.8340  -15.4210    0.5450 C.3    22  SER22       0.2130
     46  OG         2.0900  -16.7070    1.0740 O.3    22  SER22      -0.2179
     47  N          3.7730  -15.8970   -1.5480 N.am   23  VAL23      -0.1977
     48  CA         4.9040  -16.5550   -2.1790 C.3    23  VAL23       0.1596
     49  C          6.0230  -16.7620   -1.1930 C.2    23  VAL23       0.2287
     50  O          6.4540  -15.8250   -0.5320 O.2    23  VAL23      -0.2864
     51  CB         5.4400  -15.6980   -3.3590 C.3    23  VAL23       0.0276
     52  CG1        6.6640  -16.3600   -3.9910 C.3    23  VAL23       0.0022
     53  CG2        4.3320  -15.4850   -4.3930 C.3    23  VAL23       0.0022
     54  N          4.1060  -20.2340   -4.6640 N.3    42  LYS42      -0.1245
     55  CA         2.9450  -19.4600   -4.2990 C.3    42  LYS42       0.1561
     56  C          1.7800  -20.3450   -3.9260 C.2    42  LYS42       0.2260
     57  O          1.5950  -21.4350   -4.4680 O.2    42  LYS42      -0.2867
     58  CB         2.5250  -18.5380   -5.4440 C.3    42  LYS42       0.0271
     59  CG         1.1120  -17.9610   -5.3040 C.3    42  LYS42       0.0035
     60  CD         0.8390  -16.9610   -6.4200 C.3    42  LYS42       0.0206
     61  CE        -0.6080  -16.4690   -6.4760 C.3    42  LYS42       0.1093
     62  NZ        -0.8090  -15.5890   -7.6820 N.3    42  LYS42      -0.1314
     63  N          4.4760  -12.6280  -11.2990 N.3   154  ASP154     -0.1239
     64  CA         3.1040  -12.5500  -10.8190 C.3   154  ASP154      0.1674
     65  C          2.0420  -12.4950  -11.9120 C.2   154  ASP154      0.2266
     66  O          1.7500  -11.4480  -12.4920 O.2   154  ASP154     -0.2867
     67  CB         2.9180  -11.3540   -9.8820 C.3   154  ASP154      0.1410
     68  CG         1.5780  -11.3850   -9.1620 C.2   154  ASP154      0.3668
     69  OD1        1.3410  -10.5310   -8.2800 O.co2 154  ASP154     -0.2456
     70  OD2        0.7590  -12.2750   -9.4860 O.co2 154  ASP154     -0.2456
     71  N         -0.9910  -13.7100  -11.2750 N.3   156  GLY156     -0.1210
     72  CA        -2.1720  -13.9720  -10.4940 C.3   156  GLY156      0.1956
     73  C         -3.3420  -13.1490  -10.9860 C.2   156  GLY156      0.2611
     74  O         -4.4780  -13.5050  -10.7130 O.2   156  GLY156     -0.2717
     75  N         -3.0930  -12.0610  -11.7050 N.am  157  LEU157     -0.1979
     76  CA        -4.2040  -11.2430  -12.1810 C.3   157  LEU157      0.1596
     77  C         -4.4870  -11.3510  -13.6520 C.2   157  LEU157      0.2287
     78  O         -5.4690  -10.8040  -14.1500 O.2   157  LEU157     -0.2864
     79  CB        -3.9500   -9.7780  -11.8670 C.3   157  LEU157      0.0297
     80  CG        -3.7520   -9.5740  -10.3810 C.3   157  LEU157      0.0022
     81  CD1       -2.4320   -8.8650  -10.1470 C.3   157  LEU157      0.0001
     82  CD2       -4.9430   -8.8090   -9.8050 C.3   157  LEU157      0.0001
     83  N         -2.9090   -4.7530   -7.9130 N.3   173  GLN173     -0.1245
     84  CA        -2.4470   -4.4350   -6.5630 C.3   173  GLN173      0.1566
     85  C         -1.7020   -3.1170   -6.4010 C.2   173  GLN173      0.2260
     86  O         -1.3510   -2.7210   -5.2890 O.2   173  GLN173     -0.2867
     87  CB        -1.5600   -5.5590   -6.0370 C.3   173  GLN173      0.0367
     88  CG        -2.2520   -6.8980   -5.9080 C.3   173  GLN173      0.0905
     89  CD        -1.3580   -7.9400   -5.2780 C.2   173  GLN173      0.2608
     90  OE1       -0.9790   -7.8280   -4.1120 O.2   173  GLN173     -0.2717
     91  NE2       -1.0040   -8.9610   -6.0530 N.am  173  GLN173     -0.0878
@<TRIPOS>BOND
     1    78    77    2
     2    77    76    1
     3    66    65    2
     4    76    79    1
     5    76    75    1
     6    65    64    1
     7    79    80    1
     8    75    73   am
     9    63    64    1
    10    71    72    1
    11    73    74    2
    12    73    72    1
    13    64    67    1
    14    80    81    1
    15    80    82    1
    16    67    68    1
    17    70    68   ar
    18    68    69   ar
    19    83    84    1
    20    62    61    1
    21    84    85    1
    22    84    87    1
    23    61    60    1
    24    60    59    1
    25    85    86    2
    26    91    89   am
    27    87    88    1
    28    88    89    1
    29    36    34   ar
    30    36    35   ar
    31    58    59    1
    32    58    55    1
    33    89    90    2
    34    34    32   ar
    35    54    55    1
    36    35    33   ar
    37    57    56    2
    38    53    51    1
    39    55    56    1
    40    52    51    1
    41    32    31   ar
    42    25    23   am
    43    51    48    1
    44    33    31   ar
    45    31    30    1
    46    44    43    2
    47    29    28    2
    48    48    47    1
    49    48    49    1
    50    23    22    1
    51    23    24    2
    52    22    19    1
    53    43    47   am
    54    43    42    1
    55    15    16    1
    56    15    14    1
    57    18    16   am
    58    18    19    1
    59    30    27    1
    60    28    27    1
    61    28    37   am
    62    38    39    1
    63    38    37    1
    64    49    50    2
    65    41    42    1
    66    41    39   am
    67    26    27    1
    68    26    20   am
    69    42    45    1
    70    39    40    2
    71     8     7    2
    72    16    17    2
    73    19    20    1
    74    14     7   am
    75     7     6    1
    76     2     1    1
    77     2     3    1
    78    20    21    2
    79     3     4    2
    80     3     5   am
    81     5     6    1
    82     6     9    1
    83    45    46    1
    84     9    10    1
    85    10    11    1
    86    11    12    1
    87    12    13    1
