@<TRIPOS>MOLECULE
tmp/1yvkA00.pdb
 181 175 0 0 0
SMALL
GASTEIGER

@<TRIPOS>ATOM
      1  N         52.5400  108.4690  170.3220 N.3    20  LEU20      -0.1231
      2  CA        53.1200  109.6040  169.6200 C.3    20  LEU20       0.1693
      3  C         53.9640  110.3580  170.6130 C.2    20  LEU20       0.2591
      4  O         55.0230  110.8670  170.2720 O.2    20  LEU20      -0.2718
      5  CB        52.0400  110.5360  169.0900 C.3    20  LEU20       0.0284
      6  CG        51.2370  110.0210  167.9040 C.3    20  LEU20       0.0019
      7  CD1       50.1460  111.0260  167.5960 C.3    20  LEU20       0.0001
      8  CD2       52.1420  109.7950  166.7040 C.3    20  LEU20       0.0001
      9  N         53.4780  110.4260  171.8490 N.am   21  ALA21      -0.1980
     10  CA        54.1780  111.1240  172.9220 C.3    21  ALA21       0.1597
     11  C         55.1940  110.2200  173.5960 C.2    21  ALA21       0.2287
     12  O         56.3870  110.5150  173.6150 O.2    21  ALA21      -0.2864
     13  CB        53.1890  111.6450  173.9460 C.3    21  ALA21       0.0319
     14  N         50.3710  115.7530  183.9600 N.3    62  ILE62      -0.1231
     15  CA        49.8820  115.3070  182.6720 C.3    62  ILE62       0.1692
     16  C         50.9790  114.4340  182.0880 C.2    62  ILE62       0.2592
     17  O         51.7790  114.9050  181.3130 O.2    62  ILE62      -0.2718
     18  CB        49.6170  116.4750  181.7470 C.3    62  ILE62       0.0266
     19  CG1       48.5760  117.3960  182.3690 C.3    62  ILE62       0.0019
     20  CG2       49.1410  115.9640  180.4090 C.3    62  ILE62       0.0020
     21  CD1       48.2400  118.6050  181.5350 C.3    62  ILE62       0.0001
     22  N         51.0080  113.1620  182.4770 N.am   63  VAL63      -0.1966
     23  CA        52.0180  112.2390  182.0050 C.3    63  VAL63       0.1727
     24  C         52.0270  111.9860  180.5070 C.2    63  VAL63       0.2616
     25  O         52.9810  111.4060  179.9950 O.2    63  VAL63      -0.2715
     26  CB        51.8830  110.9050  182.7060 C.3    63  VAL63       0.0290
     27  CG1       52.3330  111.0290  184.1300 C.3    63  VAL63       0.0023
     28  CG2       50.4410  110.4490  182.6400 C.3    63  VAL63       0.0023
     29  N         50.9780  112.4110  179.8040 N.am   64  ASN64      -0.1958
     30  CA        50.8900  112.1990  178.3600 C.3    64  ASN64       0.1819
     31  C         49.7720  112.9890  177.6980 C.2    64  ASN64       0.2621
     32  O         48.6530  113.0460  178.2050 O.2    64  ASN64      -0.2715
     33  CB        50.6750  110.7110  178.0610 C.3    64  ASN64       0.1195
     34  CG        50.6440  110.4240  176.5800 C.2    64  ASN64       0.2630
     35  OD1       50.8990  111.3260  175.7710 O.2    64  ASN64      -0.2716
     36  ND2       50.3500  109.1750  176.2050 N.am   64  ASN64      -0.0877
     37  N         50.0790  113.6020  176.5610 N.am   65  ILE65      -0.1963
     38  CA        49.0710  114.3500  175.8210 C.3    65  ILE65       0.1727
     39  C         49.4690  114.3130  174.3600 C.2    65  ILE65       0.2616
     40  O         50.6460  114.4610  174.0400 O.2    65  ILE65      -0.2715
     41  CB        48.9590  115.8150  176.3230 C.3    65  ILE65       0.0290
     42  CG1       47.9430  116.5960  175.4870 C.3    65  ILE65       0.0022
     43  CG2       50.3050  116.4760  176.2930 C.3    65  ILE65       0.0023
     44  CD1       47.7290  118.0020  175.9680 C.3    65  ILE65       0.0001
     45  N         48.4930  114.0880  173.4790 N.am   66  ALA66      -0.1963
     46  CA        48.7440  114.0260  172.0360 C.3    66  ALA66       0.1728
     47  C         47.5050  114.3270  171.2090 C.2    66  ALA66       0.2616
     48  O         46.3820  114.2390  171.6920 O.2    66  ALA66      -0.2715
     49  CB        49.2950  112.6620  171.6650 C.3    66  ALA66       0.0334
     50  N         47.7290  114.7070  169.9600 N.am   67  VAL67      -0.1977
     51  CA        46.6390  115.0140  169.0430 C.3    67  VAL67       0.1596
     52  C         46.9910  114.4500  167.6820 C.2    67  VAL67       0.2287
     53  O         48.1250  114.5780  167.2350 O.2    67  VAL67      -0.2864
     54  CB        46.4150  116.5190  168.9020 C.3    67  VAL67       0.0276
     55  CG1       45.2980  116.7740  167.9250 C.3    67  VAL67       0.0022
     56  CG2       46.0690  117.1170  170.2400 C.3    67  VAL67       0.0022
     57  N         46.1810  118.1000  164.3430 N.3    72  GLN72      -0.1231
     58  CA        46.8540  119.0050  165.2400 C.3    72  GLN72       0.1698
     59  C         47.1130  120.3090  164.5370 C.2    72  GLN72       0.2592
     60  O         46.9690  120.4110  163.3180 O.2    72  GLN72      -0.2718
     61  CB        48.1610  118.3980  165.7630 C.3    72  GLN72       0.0381
     62  CG        49.2520  118.2040  164.7560 C.3    72  GLN72       0.0905
     63  CD        50.5310  117.7070  165.4010 C.2    72  GLN72       0.2608
     64  OE1       50.5790  116.6260  165.9820 O.2    72  GLN72      -0.2717
     65  NE2       51.5780  118.5010  165.2960 N.am   72  GLN72      -0.0878
     66  N         47.4840  121.3080  165.3280 N.am   73  LYS73      -0.1966
     67  CA        47.7810  122.6440  164.8260 C.3    73  LYS73       0.1728
     68  C         46.4940  123.3810  164.5520 C.2    73  LYS73       0.2616
     69  O         46.4940  124.4380  163.9330 O.2    73  LYS73      -0.2715
     70  CB        48.6230  122.5750  163.5460 C.3    73  LYS73       0.0311
     71  CG        50.0350  122.0470  163.7660 C.3    73  LYS73       0.0038
     72  CD        50.8990  123.0450  164.5310 C.3    73  LYS73       0.0206
     73  CE        51.9360  122.3340  165.3960 C.3    73  LYS73       0.1093
     74  NZ        52.6660  121.2660  164.6570 N.3    73  LYS73      -0.1314
     75  N         45.3910  122.8150  165.0140 N.am   74  LYS74      -0.1963
     76  CA        44.1160  123.4580  164.8070 C.3    74  LYS74       0.1728
     77  C         43.6090  124.0400  166.1090 C.2    74  LYS74       0.2616
     78  O         42.5300  124.6230  166.1700 O.2    74  LYS74      -0.2715
     79  CB        43.0970  122.4720  164.2300 C.3    74  LYS74       0.0311
     80  CG        43.1670  122.3020  162.7030 C.3    74  LYS74       0.0038
     81  CD        41.9100  121.6000  162.1730 C.3    74  LYS74       0.0206
     82  CE        41.7960  121.6870  160.6560 C.3    74  LYS74       0.1093
     83  NZ        40.5390  121.0410  160.1510 N.3    74  LYS74      -0.1314
     84  N         44.3960  123.8830  167.1610 N.am   75  GLY75      -0.1955
     85  CA        43.9830  124.4240  168.4390 C.3    75  GLY75       0.1869
     86  C         43.4510  123.4130  169.4330 C.2    75  GLY75       0.2309
     87  O         43.0540  123.7770  170.5480 O.2    75  GLY75      -0.2863
     88  N         45.2100  121.1520  170.7640 N.3    77  GLY77      -0.1210
     89  CA        46.2290  120.9820  171.7820 C.3    77  GLY77       0.1956
     90  C         45.8690  121.8030  173.0050 C.2    77  GLY77       0.2611
     91  O         45.7090  121.2710  174.1080 O.2    77  GLY77      -0.2717
     92  N         45.7270  123.1090  172.7980 N.am   78  LYS78      -0.1979
     93  CA        45.3780  124.0140  173.8730 C.3    78  LYS78       0.1596
     94  C         44.1190  123.5550  174.6040 C.2    78  LYS78       0.2287
     95  O         44.0830  123.5710  175.8360 O.2    78  LYS78      -0.2864
     96  CB        45.1870  125.4290  173.3300 C.3    78  LYS78       0.0298
     97  CG        44.8260  126.4540  174.3910 C.3    78  LYS78       0.0038
     98  CD        44.8190  127.8810  173.8410 C.3    78  LYS78       0.0206
     99  CE        44.3470  128.8760  174.9050 C.3    78  LYS78       0.1093
    100  NZ        44.3680  130.2900  174.4530 N.3    78  LYS78      -0.1314
    101  N         53.7500  119.0900  184.3070 N.3    98  ILE98      -0.1231
    102  CA        53.9210  118.5670  182.9510 C.3    98  ILE98       0.1692
    103  C         55.2960  118.9910  182.4800 C.2    98  ILE98       0.2593
    104  O         55.7090  120.1190  182.7320 O.2    98  ILE98      -0.2718
    105  CB        52.9090  119.1580  182.0000 C.3    98  ILE98       0.0266
    106  CG1       53.1290  118.6090  180.5990 C.3    98  ILE98       0.0019
    107  CG2       53.0430  120.6610  182.0070 C.3    98  ILE98       0.0020
    108  CD1       52.1360  119.1420  179.5950 C.3    98  ILE98       0.0001
    109  N         56.0140  118.1050  181.8000 N.am   99  GLY99      -0.1942
    110  CA        57.3410  118.4770  181.3240 C.3    99  GLY99       0.2014
    111  C         57.7330  117.8620  179.9930 C.2    99  GLY99       0.2639
    112  O         57.3190  116.7590  179.6670 O.2    99  GLY99      -0.2714
    113  N         58.5310  118.5690  179.2080 N.am  100  THR100     -0.1950
    114  CA        58.9480  118.0190  177.9290 C.3   100  THR100      0.1897
    115  C         60.3950  118.3250  177.6820 C.2   100  THR100      0.2313
    116  O         61.0350  119.0040  178.4750 O.2   100  THR100     -0.2863
    117  CB        58.1450  118.5740  176.7560 C.3   100  THR100      0.1794
    118  OG1       58.3640  119.9790  176.6600 O.3   100  THR100     -0.2208
    119  CG2       56.6660  118.3110  176.9600 C.3   100  THR100      0.0378
    120  N         60.4100  123.2580  171.5220 N.3   105  ILE105     -0.1231
    121  CA        60.1240  124.6870  171.5680 C.3   105  ILE105      0.1692
    122  C         58.6350  124.9950  171.4760 C.2   105  ILE105      0.2592
    123  O         58.1300  125.8330  172.2080 O.2   105  ILE105     -0.2718
    124  CB        60.7890  125.4350  170.4340 C.3   105  ILE105      0.0266
    125  CG1       62.2570  125.0550  170.3070 C.3   105  ILE105      0.0019
    126  CG2       60.6980  126.8870  170.6990 C.3   105  ILE105      0.0020
    127  CD1       62.7690  125.2020  168.8560 C.3   105  ILE105      0.0001
    128  N         57.9320  124.3330  170.5670 N.am  106  HIS106     -0.1962
    129  CA        56.5060  124.5820  170.4020 C.3   106  HIS106      0.1787
    130  C         55.7470  124.3870  171.6990 C.2   106  HIS106      0.2620
    131  O         54.9810  125.2460  172.0990 O.2   106  HIS106     -0.2715
    132  CB        55.9110  123.6510  169.3410 C.3   106  HIS106      0.0785
    133  CG        54.4450  123.8680  169.0930 C.ar  106  HIS106      0.0821
    134  ND1       53.5350  122.8330  169.0320 N.ar  106  HIS106     -0.2267
    135  CD2       53.7350  125.0010  168.8720 C.ar  106  HIS106      0.1154
    136  CE1       52.3320  123.3180  168.7820 C.ar  106  HIS106      0.1986
    137  NE2       52.4260  124.6320  168.6810 N.ar  106  HIS106     -0.2212
    138  N         55.9490  123.2460  172.3470 N.am  107  GLN107     -0.1977
    139  CA        55.2510  122.9610  173.5880 C.3   107  GLN107      0.1601
    140  C         55.6400  123.9570  174.6840 C.2   107  GLN107      0.2287
    141  O         54.7800  124.4320  175.4240 O.2   107  GLN107     -0.2864
    142  CB        55.5430  121.5330  174.0480 C.3   107  GLN107      0.0394
    143  CG        55.2260  120.4610  173.0310 C.3   107  GLN107      0.0908
    144  CD        55.6030  119.0750  173.5230 C.2   107  GLN107      0.2608
    145  OE1       55.0560  118.5950  174.5080 O.2   107  GLN107     -0.2717
    146  NE2       56.5480  118.4270  172.8350 N.am  107  GLN107     -0.0878
    147  N         56.0320  126.8190  174.5700 N.3   109  SER109     -0.1202
    148  CA        55.1790  127.9870  174.3640 C.3   109  SER109      0.2020
    149  C         53.7430  127.6870  174.7580 C.2   109  SER109      0.2619
    150  O         53.1490  128.3980  175.5510 O.2   109  SER109     -0.2717
    151  CB        55.1890  128.4020  172.8940 C.3   109  SER109      0.2103
    152  OG        54.1050  129.2640  172.5990 O.3   109  SER109     -0.2182
    153  N         53.1970  126.6250  174.1760 N.am  110  LEU110     -0.1965
    154  CA        51.8260  126.1980  174.4160 C.3   110  LEU110      0.1728
    155  C         51.4840  126.1520  175.8790 C.2   110  LEU110      0.2616
    156  O         50.5890  126.8540  176.3470 O.2   110  LEU110     -0.2715
    157  CB        51.6010  124.8090  173.8240 C.3   110  LEU110      0.0311
    158  CG        50.2530  124.1310  174.1070 C.3   110  LEU110      0.0022
    159  CD1       49.1030  124.8710  173.4430 C.3   110  LEU110      0.0001
    160  CD2       50.3130  122.7230  173.5790 C.3   110  LEU110      0.0001
    161  N         52.2020  125.3010  176.5990 N.am  111  TYR111     -0.1974
    162  CA        51.9700  125.1320  178.0200 C.3   111  TYR111      0.1639
    163  C         52.0060  126.4410  178.7850 C.2   111  TYR111      0.2290
    164  O         51.1490  126.6840  179.6290 O.2   111  TYR111     -0.2864
    165  CB        52.9810  124.1550  178.5940 C.3   111  TYR111      0.0560
    166  CG        53.0090  122.8290  177.8770 C.ar  111  TYR111     -0.0198
    167  CD1       51.8620  122.2950  177.2940 C.ar  111  TYR111     -0.0009
    168  CD2       54.1910  122.0970  177.8050 C.ar  111  TYR111     -0.0009
    169  CE1       51.9010  121.0700  176.6590 C.ar  111  TYR111      0.0417
    170  CE2       54.2430  120.8790  177.1830 C.ar  111  TYR111      0.0417
    171  CZ        53.1020  120.3670  176.6080 C.ar  111  TYR111      0.1957
    172  OH        53.1890  119.1560  175.9620 O.3   111  TYR111     -0.2866
    173  N         51.4000  129.2940  177.6310 N.3   113  LYS113     -0.1245
    174  CA        50.2180  130.0290  177.2540 C.3   113  LYS113      0.1561
    175  C         49.0470  129.5350  178.0580 C.2   113  LYS113      0.2260
    176  O         48.0570  130.2380  178.1680 O.2   113  LYS113     -0.2867
    177  CB        49.9320  129.8600  175.7780 C.3   113  LYS113      0.0271
    178  CG        50.7130  130.8100  174.8990 C.3   113  LYS113      0.0035
    179  CD        50.8650  130.2320  173.4840 C.3   113  LYS113      0.0206
    180  CE        51.2000  131.3070  172.4640 C.3   113  LYS113      0.1093
    181  NZ        50.0260  132.1880  172.1770 N.3   113  LYS113     -0.1314
@<TRIPOS>BOND
     1    83    82    1
     2    82    81    1
     3    81    80    1
     4    80    79    1
     5    60    59    2
     6    70    71    1
     7    70    67    1
     8    71    72    1
     9    69    68    2
    10    79    76    1
    11    57    58    1
    12    72    73    1
    13    59    58    1
    14    59    66   am
    15    68    67    1
    16    68    75   am
    17    74    73    1
    18    62    63    1
    19    62    61    1
    20    76    75    1
    21    76    77    1
    22    67    66    1
    23    58    61    1
    24    65    63   am
    25    63    64    2
    26    77    78    2
    27    77    84   am
    28     8     6    1
    29    84    85    1
    30    53    52    2
    31     7     6    1
    32    52    51    1
    33     6     5    1
    34    55    54    1
    35    85    86    1
    36   137   136   ar
    37   137   135   ar
    38   136   134   ar
    39   127   125    1
    40   135   133   ar
    41    54    51    1
    42    54    56    1
    43   134   133   ar
    44    51    50    1
    45     5     2    1
    46   133   132    1
    47   132   129    1
    48    86    87    2
    49     2     1    1
    50     2     3    1
    51    50    47   am
    52     4     3    2
    53   125   124    1
    54   129   128    1
    55   129   130    1
    56   124   126    1
    57   124   121    1
    58   128   122   am
    59     3     9   am
    60    88    89    1
    61    47    48    2
    62    47    46    1
    63   122   121    1
    64   122   123    2
    65   120   121    1
    66    49    46    1
    67   130   131    2
    68   130   138   am
    69    89    90    1
    70     9    10    1
    71    46    45    1
    72   181   180    1
    73   138   139    1
    74   180   179    1
    75   152   151    1
    76    92    90   am
    77    92    93    1
    78   146   144   am
    79   151   148    1
    80    10    11    1
    81    10    13    1
    82    90    91    2
    83   143   144    1
    84   143   142    1
    85    96    93    1
    86    96    97    1
    87   159   158    1
    88    45    39   am
    89   179   178    1
    90   144   145    2
    91   160   158    1
    92   139   142    1
    93   139   140    1
    94    11    12    2
    95   157   158    1
    96   157   154    1
    97    98    97    1
    98    98    99    1
    99    93    94    1
   100    40    39    2
   101   153   154    1
   102   153   149   am
   103    39    38    1
   104   148   147    1
   105   148   149    1
   106   154   155    1
   107   100    99    1
   108    94    95    2
   109   140   141    2
   110   149   150    2
   111   178   177    1
   112    42    44    1
   113    42    41    1
   114    35    34    2
   115   177   174    1
   116    38    41    1
   117    38    37    1
   118   155   156    2
   119   155   161   am
   120   172   171    1
   121    36    34   am
   122    43    41    1
   123    37    31   am
   124    34    33    1
   125   161   162    1
   126   171   169   ar
   127   171   170   ar
   128   169   167   ar
   129   118   117    1
   130   117   119    1
   131   117   114    1
   132   170   168   ar
   133   174   173    1
   134   174   175    1
   135   167   166   ar
   136   115   114    1
   137   115   116    2
   138    31    32    2
   139    31    30    1
   140   168   166   ar
   141   166   165    1
   142   114   113    1
   143   162   165    1
   144   162   163    1
   145   175   176    2
   146    33    30    1
   147    30    29    1
   148   163   164    2
   149   113   111   am
   150   108   106    1
   151   112   111    2
   152    29    24   am
   153   111   110    1
   154    25    24    2
   155    20    18    1
   156    24    23    1
   157   106   105    1
   158    17    16    2
   159   110   109    1
   160    21    19    1
   161    18    19    1
   162    18    15    1
   163   109   103   am
   164   105   107    1
   165   105   102    1
   166    23    22    1
   167    23    26    1
   168    16    22   am
   169    16    15    1
   170   103   104    2
   171   103   102    1
   172    28    26    1
   173    15    14    1
   174    26    27    1
   175   102   101    1
