@<TRIPOS>MOLECULE
tmp/1yvlB00.pdb
 188 185 0 0 0
SMALL
GASTEIGER

@<TRIPOS>ATOM
      1  N          6.9300  -64.7060  220.3360 N.3   555  LYS555     -0.1245
      2  CA         7.8770  -64.7430  221.4520 C.3   555  LYS555      0.1561
      3  C          8.9860  -65.7140  221.0370 C.2   555  LYS555      0.2260
      4  O         10.1730  -65.4780  221.2850 O.2   555  LYS555     -0.2867
      5  CB         7.1950  -65.2730  222.7100 C.3   555  LYS555      0.0271
      6  CG         5.9710  -64.5080  223.1000 C.3   555  LYS555      0.0035
      7  CD         6.3300  -63.1290  223.5920 C.3   555  LYS555      0.0206
      8  CE         7.0160  -63.2100  224.9460 C.3   555  LYS555      0.1093
      9  NZ         6.9810  -61.9030  225.6710 N.3   555  LYS555     -0.1314
     10  N         12.9500  -64.7950  220.1820 N.3   559  ARG559     -0.1245
     11  CA        14.0670  -65.3420  220.9550 C.3   559  ARG559      0.1563
     12  C         15.0070  -66.0420  219.9840 C.2   559  ARG559      0.2260
     13  O         16.1840  -66.2390  220.2700 O.2   559  ARG559     -0.2867
     14  CB        13.5660  -66.3540  221.9890 C.3   559  ARG559      0.0307
     15  CG        13.5220  -65.8600  223.4290 C.3   559  ARG559      0.0489
     16  CD        12.6640  -64.6160  223.5930 C.3   559  ARG559      0.2205
     17  NE        12.3850  -64.3340  225.0000 N.pl3 559  ARG559     -0.0865
     18  CZ        12.0720  -63.1330  225.4840 C.cat 559  ARG559      0.5346
     19  NH1       11.9980  -62.0790  224.6740 N.pl3 559  ARG559      0.1354
     20  NH2       11.8300  -62.9830  226.7830 N.pl3 559  ARG559      0.1354
     21  N          8.9970  -54.3520  219.1430 N.3   573  ARG573     -0.1245
     22  CA         7.7480  -55.0770  218.8330 C.3   573  ARG573      0.1563
     23  C          6.6390  -54.5760  219.7720 C.2   573  ARG573      0.2260
     24  O          6.9190  -53.9380  220.7960 O.2   573  ARG573     -0.2867
     25  CB         7.9180  -56.5790  219.0580 C.3   573  ARG573      0.0307
     26  CG         7.9460  -56.9540  220.5280 C.3   573  ARG573      0.0489
     27  CD         8.2170  -58.4330  220.7610 C.3   573  ARG573      0.2205
     28  NE         8.3340  -58.6970  222.1880 N.pl3 573  ARG573     -0.0865
     29  CZ         7.3310  -58.5790  223.0540 C.cat 573  ARG573      0.5346
     30  NH1        6.1250  -58.2120  222.6400 N.pl3 573  ARG573      0.1354
     31  NH2        7.5370  -58.8010  224.3460 N.pl3 573  ARG573      0.1354
     32  N          3.4940  -54.9760  222.4760 N.3   575  SER575     -0.1202
     33  CA         3.0440  -55.8210  223.5620 C.3   575  SER575      0.2020
     34  C          1.7650  -56.5060  223.1060 C.2   575  SER575      0.2619
     35  O          0.9880  -55.9190  222.3550 O.2   575  SER575     -0.2717
     36  CB         2.7540  -54.9500  224.7870 C.3   575  SER575      0.2103
     37  OG         2.0630  -55.6680  225.7900 O.3   575  SER575     -0.2182
     38  N          1.5590  -57.7500  223.5260 N.am  576  GLU576     -0.1965
     39  CA         0.3370  -58.4650  223.1850 C.3   576  GLU576      0.1733
     40  C         -0.4820  -58.4600  224.4510 C.2   576  GLU576      0.2617
     41  O         -1.6980  -58.5670  224.4130 O.2   576  GLU576     -0.2715
     42  CB         0.6120  -59.9090  222.7900 C.3   576  GLU576      0.0429
     43  CG         1.4180  -60.0790  221.5340 C.3   576  GLU576      0.1163
     44  CD         1.5160  -61.5370  221.1250 C.2   576  GLU576      0.3649
     45  OE1        0.5570  -62.0580  220.5120 O.co2 576  GLU576     -0.2457
     46  OE2        2.5530  -62.1660  221.4340 O.co2 576  GLU576     -0.2457
     47  N          0.2100  -58.3290  225.5740 N.am  577  SER577     -0.1950
     48  CA        -0.4150  -58.3140  226.8790 C.3   577  SER577      0.1924
     49  C         -1.2790  -57.0830  227.0050 C.2   577  SER577      0.2314
     50  O         -2.4170  -57.1530  227.4460 O.2   577  SER577     -0.2863
     51  CB         0.6470  -58.2520  227.9710 C.3   577  SER577      0.2116
     52  OG         1.7520  -59.0810  227.6800 O.3   577  SER577     -0.2180
     53  N          7.7660  -52.1180  222.9180 N.3   584  THR584     -0.1218
     54  CA         8.8100  -52.5750  223.8100 C.3   584  THR584      0.1862
     55  C         10.0170  -52.9820  222.9830 C.2   584  THR584      0.2287
     56  O          9.9190  -53.2660  221.7800 O.2   584  THR584     -0.2866
     57  CB         8.3800  -53.7750  224.6690 C.3   584  THR584      0.1770
     58  OG1        9.2500  -53.8530  225.7990 O.3   584  THR584     -0.2211
     59  CG2        8.4700  -55.0840  223.8840 C.3   584  THR584      0.0375
     60  N         16.3100  -57.4510  223.9070 N.3   587  TRP587     -0.1241
     61  CA        17.6980  -57.5870  223.4830 C.3   587  TRP587      0.1605
     62  C         18.3700  -58.7810  224.1490 C.2   587  TRP587      0.2264
     63  O         17.8220  -59.3780  225.0780 O.2   587  TRP587     -0.2867
     64  CB        18.4660  -56.3110  223.8360 C.3   587  TRP587      0.0550
     65  CG        18.7160  -56.1500  225.3190 C.ar  587  TRP587      0.0003
     66  CD1       19.7630  -56.6630  226.0380 C.ar  587  TRP587      0.0946
     67  CD2       17.8690  -55.4800  226.2660 C.ar  587  TRP587      0.0152
     68  NE1       19.6170  -56.3570  227.3700 N.ar  587  TRP587     -0.2442
     69  CE2       18.4650  -55.6330  227.5400 C.ar  587  TRP587      0.0810
     70  CE3       16.6650  -54.7680  226.1630 C.ar  587  TRP587      0.0012
     71  CZ2       17.8960  -55.1000  228.7030 C.ar  587  TRP587      0.0191
     72  CZ3       16.1000  -54.2380  227.3240 C.ar  587  TRP587      0.0001
     73  CH2       16.7170  -54.4080  228.5740 C.ar  587  TRP587      0.0015
     74  N         22.3200  -60.4810  225.6250 N.3   589  GLU589     -0.1245
     75  CA        23.5630  -60.0620  226.2780 C.3   589  GLU589      0.1567
     76  C         24.4470  -61.2600  226.5980 C.2   589  GLU589      0.2260
     77  O         24.0230  -62.4130  226.4480 O.2   589  GLU589     -0.2867
     78  CB        23.2600  -59.3140  227.5770 C.3   589  GLU589      0.0388
     79  CG        22.3050  -58.1670  227.4000 C.3   589  GLU589      0.1160
     80  CD        22.1650  -57.3330  228.6380 C.2   589  GLU589      0.3649
     81  OE1       21.8640  -57.9040  229.7060 O.co2 589  GLU589     -0.2457
     82  OE2       22.3530  -56.1050  228.5330 O.co2 589  GLU589     -0.2457
     83  N         18.0980  -62.9880  226.9240 N.3   598  PHE598     -0.1227
     84  CA        17.0880  -62.0940  226.3930 C.3   598  PHE598      0.1736
     85  C         16.4480  -61.2890  227.5060 C.2   598  PHE598      0.2595
     86  O         16.0160  -61.8430  228.5130 O.2   598  PHE598     -0.2718
     87  CB        16.0020  -62.8960  225.6920 C.3   598  PHE598      0.0547
     88  CG        16.5030  -64.1440  225.0430 C.ar  598  PHE598     -0.0202
     89  CD1       17.3830  -64.0740  223.9710 C.ar  598  PHE598     -0.0042
     90  CD2       16.0930  -65.3960  225.5090 C.ar  598  PHE598     -0.0042
     91  CE1       17.8540  -65.2280  223.3670 C.ar  598  PHE598     -0.0003
     92  CE2       16.5550  -66.5610  224.9150 C.ar  598  PHE598     -0.0003
     93  CZ        17.4400  -66.4780  223.8380 C.ar  598  PHE598     -0.0000
     94  N         16.3920  -59.9770  227.3100 N.am  599  HIS599     -0.1961
     95  CA        15.7850  -59.0790  228.2770 C.3   599  HIS599      0.1787
     96  C         14.7860  -58.2310  227.5280 C.2   599  HIS599      0.2620
     97  O         14.9530  -57.9530  226.3440 O.2   599  HIS599     -0.2715
     98  CB        16.8430  -58.1950  228.9390 C.3   599  HIS599      0.0785
     99  CG        17.7800  -58.9500  229.8260 C.ar  599  HIS599      0.0821
    100  ND1       18.9370  -58.3930  230.3400 N.ar  599  HIS599     -0.2267
    101  CD2       17.7420  -60.2170  230.3000 C.ar  599  HIS599      0.1154
    102  CE1       19.5610  -59.2820  231.0820 C.ar  599  HIS599      0.1986
    103  NE2       18.8570  -60.4030  231.0770 N.ar  599  HIS599     -0.2212
    104  N         13.7320  -57.8410  228.2220 N.am  600  ALA600     -0.1963
    105  CA        12.7000  -57.0290  227.6160 C.3   600  ALA600      0.1728
    106  C         12.0890  -56.1170  228.6640 C.2   600  ALA600      0.2616
    107  O         11.8320  -56.5360  229.7900 O.2   600  ALA600     -0.2715
    108  CB        11.6410  -57.9130  227.0070 C.3   600  ALA600      0.0334
    109  N         11.8710  -54.8640  228.2780 N.am  601  VAL601     -0.1963
    110  CA        11.2990  -53.8490  229.1570 C.3   601  VAL601      0.1727
    111  C          9.8000  -53.9050  229.2920 C.2   601  VAL601      0.2616
    112  O          9.0890  -54.3090  228.3750 O.2   601  VAL601     -0.2715
    113  CB        11.5780  -52.4350  228.6580 C.3   601  VAL601      0.0290
    114  CG1       12.8580  -51.9270  229.2330 C.3   601  VAL601      0.0023
    115  CG2       11.5900  -52.4290  227.1370 C.3   601  VAL601      0.0023
    116  N          9.3270  -53.4550  230.4440 N.am  602  GLU602     -0.1964
    117  CA         7.9060  -53.3970  230.6980 C.3   602  GLU602      0.1718
    118  C          7.4210  -52.4110  229.6260 C.2   602  GLU602      0.2458
    119  O          7.8480  -51.2580  229.6070 O.2   602  GLU602     -0.2730
    120  CB         7.6660  -52.8570  232.1090 C.3   602  GLU602      0.0428
    121  CG         6.5240  -53.5240  232.8290 C.3   602  GLU602      0.1163
    122  CD         5.1750  -53.0710  232.3100 C.2   602  GLU602      0.3649
    123  OE1        4.9900  -53.0130  231.0750 O.co2 602  GLU602     -0.2457
    124  OE2        4.2880  -52.7760  233.1390 O.co2 602  GLU602     -0.2457
    125  N          6.5500  -52.8670  228.7010 N.am  603  PRO603     -0.2716
    126  CA         6.0000  -52.0620  227.6120 C.3   603  PRO603      0.1536
    127  C          5.6920  -50.6150  227.9530 C.2   603  PRO603      0.2598
    128  O          5.1930  -50.3070  229.0400 O.2   603  PRO603     -0.2715
    129  CB         4.7610  -52.8370  227.2260 C.3   603  PRO603      0.0310
    130  CG         5.2260  -54.2170  227.3600 C.3   603  PRO603      0.0237
    131  CD         5.9200  -54.1980  228.6970 C.3   603  PRO603      0.0939
    132  N          6.0080  -49.7380  227.0030 N.am  604  TYR604     -0.1974
    133  CA         5.7860  -48.3070  227.1370 C.3   604  TYR604      0.1639
    134  C          4.4760  -47.9710  226.4590 C.2   604  TYR604      0.2290
    135  O          4.2420  -48.3490  225.3120 O.2   604  TYR604     -0.2864
    136  CB         6.9080  -47.5320  226.4560 C.3   604  TYR604      0.0560
    137  CG         8.2110  -47.4880  227.2170 C.ar  604  TYR604     -0.0198
    138  CD1        8.4320  -46.5280  228.1980 C.ar  604  TYR604     -0.0009
    139  CD2        9.2390  -48.3820  226.9240 C.ar  604  TYR604     -0.0009
    140  CE1        9.6480  -46.4540  228.8640 C.ar  604  TYR604      0.0417
    141  CE2       10.4570  -48.3190  227.5870 C.ar  604  TYR604      0.0417
    142  CZ        10.6590  -47.3500  228.5550 C.ar  604  TYR604      0.1957
    143  OH        11.8750  -47.2690  229.2120 O.3   604  TYR604     -0.2866
    144  N          3.4640  -42.8310  228.8770 N.3   608  GLU608     -0.1245
    145  CA         4.8800  -42.4840  228.9060 C.3   608  GLU608      0.1567
    146  C          5.2320  -41.6800  227.6860 C.2   608  GLU608      0.2260
    147  O          5.6420  -40.5330  227.7880 O.2   608  GLU608     -0.2867
    148  CB         5.7700  -43.7330  228.9100 C.3   608  GLU608      0.0388
    149  CG         5.8020  -44.5070  230.2100 C.3   608  GLU608      0.1160
    150  CD         4.5150  -45.2530  230.4670 C.2   608  GLU608      0.3649
    151  OE1        4.0880  -46.0060  229.5650 O.co2 608  GLU608     -0.2457
    152  OE2        3.9410  -45.0890  231.5680 O.co2 608  GLU608     -0.2457
    153  N         17.9000  -44.8300  227.7300 N.3   621  TYR621     -0.1227
    154  CA        17.5890  -45.9790  228.5830 C.3   621  TYR621      0.1736
    155  C         18.8600  -46.3640  229.2920 C.2   621  TYR621      0.2595
    156  O         19.9420  -46.1260  228.7750 O.2   621  TYR621     -0.2718
    157  CB        17.1010  -47.1870  227.7730 C.3   621  TYR621      0.0548
    158  CG        16.5860  -48.3210  228.6450 C.ar  621  TYR621     -0.0200
    159  CD1       15.5990  -48.0870  229.6060 C.ar  621  TYR621     -0.0009
    160  CD2       17.0720  -49.6230  228.5060 C.ar  621  TYR621     -0.0009
    161  CE1       15.1080  -49.1110  230.4060 C.ar  621  TYR621      0.0417
    162  CE2       16.5820  -50.6610  229.3070 C.ar  621  TYR621      0.0417
    163  CZ        15.5990  -50.3870  230.2560 C.ar  621  TYR621      0.1957
    164  OH        15.1110  -51.3730  231.0740 O.3   621  TYR621     -0.2866
    165  N         18.7320  -46.9310  230.4830 N.am  622  LYS622     -0.1966
    166  CA        19.8960  -47.3520  231.2350 C.3   622  LYS622      0.1728
    167  C         19.4670  -48.3790  232.2450 C.2   622  LYS622      0.2616
    168  O         18.4200  -48.2390  232.8730 O.2   622  LYS622     -0.2715
    169  CB        20.5550  -46.1670  231.9620 C.3   622  LYS622      0.0311
    170  CG        20.9590  -45.0280  231.0370 C.3   622  LYS622      0.0038
    171  CD        22.0780  -44.1400  231.5610 C.3   622  LYS622      0.0206
    172  CE        22.4570  -43.1130  230.4790 C.3   622  LYS622      0.1093
    173  NZ        23.7310  -42.3690  230.7420 N.3   622  LYS622     -0.1314
    174  N         20.2700  -49.4250  232.3790 N.am  623  VAL623     -0.1963
    175  CA        19.9870  -50.4650  233.3480 C.3   623  VAL623      0.1727
    176  C         21.2470  -50.8550  234.0840 C.2   623  VAL623      0.2616
    177  O         22.3470  -50.4730  233.7010 O.2   623  VAL623     -0.2715
    178  CB        19.4150  -51.7260  232.7010 C.3   623  VAL623      0.0290
    179  CG1       18.0330  -51.4480  232.1780 C.3   623  VAL623      0.0023
    180  CG2       20.3210  -52.1910  231.6000 C.3   623  VAL623      0.0023
    181  N         21.0640  -51.6160  235.1530 N.am  624  MET624     -0.1977
    182  CA        22.1690  -52.0900  235.9640 C.3   624  MET624      0.1605
    183  C         22.8350  -53.2480  235.2130 C.2   624  MET624      0.2287
    184  O         22.1870  -54.2560  234.9100 O.2   624  MET624     -0.2864
    185  CB        21.6320  -52.5800  237.3090 C.3   624  MET624      0.0413
    186  CG        22.5360  -52.2920  238.4860 C.3   624  MET624      0.0598
    187  SD        22.6150  -50.5290  238.8260 S.3   624  MET624     -0.1393
    188  CE        23.9120  -50.0470  237.7460 C.3   624  MET624      0.0692
@<TRIPOS>BOND
     1    22    25    1
     2    22    21    1
     3    22    23    1
     4    25    26    1
     5    23    24    2
     6    12    13    2
     7    12    11    1
     8    10    11    1
     9     1     2    1
    10    45    44   ar
    11    26    27    1
    12    27    28    1
    13    11    14    1
    14     3     4    2
    15     3     2    1
    16    44    46   ar
    17    44    43    1
    18     2     5    1
    19    43    42    1
    20    56    55    2
    21    14    15    1
    22    28    29    2
    23    35    34    2
    24    32    33    1
    25    30    29    1
    26     5     6    1
    27    42    39    1
    28    53    54    1
    29    55    54    1
    30    29    31    1
    31     6     7    1
    32    34    38   am
    33    34    33    1
    34    39    38    1
    35    39    40    1
    36    91    93   ar
    37    91    89   ar
    38    15    16    1
    39    61    64    1
    40    61    60    1
    41    61    62    1
    42    33    36    1
    43     7     8    1
    44    16    17    1
    45    54    57    1
    46    64    65    1
    47    93    92   ar
    48    59    57    1
    49    89    88   ar
    50    62    63    2
    51    41    40    2
    52    40    47   am
    53    57    58    1
    54    19    18    1
    55    36    37    1
    56    92    90   ar
    57     8     9    1
    58    17    18    2
    59    88    90   ar
    60    88    87    1
    61   135   134    2
    62    65    66   ar
    63    65    67   ar
    64    18    20    1
    65    47    48    1
    66    74    75    1
    67    87    84    1
    68    66    68   ar
    69    70    67   ar
    70    70    72   ar
    71    67    69   ar
    72    75    76    1
    73    75    78    1
    74    97    96    2
    75    84    83    1
    76    84    85    1
    77    77    76    2
    78   136   133    1
    79   136   137    1
    80   134   133    1
    81    48    49    1
    82    48    51    1
    83   139   137   ar
    84   139   141   ar
    85   132   133    1
    86   132   127   am
    87    49    50    2
    88   108   105    1
    89   115   113    1
    90   137   138   ar
    91   129   130    1
    92   129   126    1
    93    94    85   am
    94    94    95    1
    95    72    73   ar
    96   130   131    1
    97    68    69   ar
    98    79    78    1
    99    79    80    1
   100    85    86    2
   101    96   104   am
   102    96    95    1
   103    69    71   ar
   104   141   142   ar
   105   126   127    1
   106   126   125    1
   107   105   104    1
   108   105   106    1
   109    52    51    1
   110   146   147    2
   111   146   145    1
   112   153   154    1
   113   157   154    1
   114   157   158    1
   115   127   128    2
   116   138   140   ar
   117    95    98    1
   118   109   106   am
   119   109   110    1
   120   112   111    2
   121   160   158   ar
   122   160   162   ar
   123    82    80   ar
   124   142   140   ar
   125   142   143    1
   126    73    71   ar
   127   154   155    1
   128    80    81   ar
   129   158   159   ar
   130   113   110    1
   131   113   114    1
   132   106   107    2
   133   131   125    1
   134   125   118   am
   135   156   155    2
   136   144   145    1
   137   145   148    1
   138   148   149    1
   139    98    99    1
   140   110   111    1
   141   155   165   am
   142   111   116   am
   143   162   163   ar
   144   151   150   ar
   145   159   161   ar
   146   119   118    2
   147   118   117    1
   148    99   101   ar
   149    99   100   ar
   150   149   150    1
   151   163   161   ar
   152   163   164    1
   153   101   103   ar
   154   100   102   ar
   155   116   117    1
   156   150   152   ar
   157   172   173    1
   158   172   171    1
   159   165   166    1
   160   117   120    1
   161   170   171    1
   162   170   169    1
   163   123   122   ar
   164   103   102   ar
   165   166   169    1
   166   166   167    1
   167   180   178    1
   168   120   121    1
   169   179   178    1
   170   167   174   am
   171   167   168    2
   172   122   121    1
   173   122   124   ar
   174   174   175    1
   175   178   175    1
   176   175   176    1
   177   177   176    2
   178   176   181   am
   179   184   183    2
   180   181   182    1
   181   183   182    1
   182   182   185    1
   183   185   186    1
   184   188   187    1
   185   186   187    1
