@<TRIPOS>MOLECULE
tmp/1yvmA00.pdb
 144 142 0 0 0
SMALL
GASTEIGER

@<TRIPOS>ATOM
      1  N         25.3090  -20.0640    9.0790 N.3    58  CYS58      -0.1235
      2  CA        26.0990  -18.9450    9.5560 C.3    58  CYS58       0.1677
      3  C         27.5840  -19.2420    9.7220 C.2    58  CYS58       0.2270
      4  O         28.4170  -18.4010    9.3740 O.2    58  CYS58      -0.2867
      5  CB        25.5530  -18.4970   10.9270 C.3    58  CYS58       0.0956
      6  SG        23.8350  -17.9440   10.7420 S.3    58  CYS58      -0.0801
      7  N         30.3450  -18.6540    7.0260 N.3    61  TYR61      -0.1227
      8  CA        29.7830  -17.9070    5.8800 C.3    61  TYR61       0.1736
      9  C         30.3500  -16.5120    5.8430 C.2    61  TYR61       0.2595
     10  O         30.1640  -15.6650    6.7290 O.2    61  TYR61      -0.2718
     11  CB        28.2670  -17.9620    6.0130 C.3    61  TYR61       0.0548
     12  CG        27.3920  -17.3690    4.9370 C.ar   61  TYR61      -0.0200
     13  CD1       27.0380  -18.0540    3.7870 C.ar   61  TYR61      -0.0009
     14  CD2       26.9030  -16.0920    5.0640 C.ar   61  TYR61      -0.0009
     15  CE1       26.2280  -17.4470    2.8390 C.ar   61  TYR61       0.0417
     16  CE2       26.0970  -15.4530    4.1510 C.ar   61  TYR61       0.0417
     17  CZ        25.7700  -16.1580    3.0260 C.ar   61  TYR61       0.1957
     18  OH        24.9610  -15.5910    2.0570 O.3    61  TYR61      -0.2866
     19  N         31.1550  -16.1650    4.8460 N.am   62  HIS62      -0.1975
     20  CA        31.8670  -14.8980    4.8050 C.3    62  HIS62       0.1656
     21  C         32.7700  -14.7200    6.0360 C.2    62  HIS62       0.2291
     22  O         33.1380  -13.6160    6.3980 O.2    62  HIS62      -0.2864
     23  CB        30.9150  -13.6910    4.7020 C.3    62  HIS62       0.0771
     24  CG        30.1640  -13.7040    3.4030 C.ar   62  HIS62       0.0820
     25  ND1       30.6240  -13.1400    2.2430 N.ar   62  HIS62      -0.2267
     26  CD2       28.9720  -14.2480    3.1000 C.ar   62  HIS62       0.1154
     27  CE1       29.7280  -13.3340    1.2810 C.ar   62  HIS62       0.1986
     28  NE2       28.7140  -14.0060    1.7720 N.ar   62  HIS62      -0.2212
     29  N         32.0160  -15.5560    9.1840 N.3    64  TYR64      -0.1241
     30  CA        31.3530  -15.4200   10.4870 C.3    64  TYR64       0.1605
     31  C         31.7800  -16.5500   11.4100 C.2    64  TYR64       0.2264
     32  O         31.8300  -17.7390   11.0750 O.2    64  TYR64      -0.2867
     33  CB        29.8440  -15.3690   10.2560 C.3    64  TYR64       0.0534
     34  CG        29.0420  -15.0710   11.4910 C.ar   64  TYR64      -0.0201
     35  CD1       28.9250  -13.7890   11.9870 C.ar   64  TYR64      -0.0009
     36  CD2       28.3970  -16.1120   12.1440 C.ar   64  TYR64      -0.0009
     37  CE1       28.1770  -13.5360   13.1300 C.ar   64  TYR64       0.0417
     38  CE2       27.6550  -15.8620   13.2930 C.ar   64  TYR64       0.0417
     39  CZ        27.5470  -14.5780   13.7760 C.ar   64  TYR64       0.1957
     40  OH        26.7980  -14.3520   14.9230 O.3    64  TYR64      -0.2866
     41  N         23.1420  -15.7240   15.1560 N.3    69  CYS69      -0.1235
     42  CA        23.2180  -14.3210   15.5200 C.3    69  CYS69       0.1677
     43  C         22.2950  -13.9830   16.6900 C.2    69  CYS69       0.2270
     44  O         21.1040  -14.3340   16.6240 O.2    69  CYS69      -0.2867
     45  CB        22.8390  -13.4130   14.3550 C.3    69  CYS69       0.0956
     46  SG        23.8890  -13.6100   12.8740 S.3    69  CYS69      -0.0801
     47  N         22.7160   -9.0340   13.7330 N.3    78  HIS78      -0.1241
     48  CA        24.0230   -9.6170   13.5220 C.3    78  HIS78       0.1621
     49  C         24.9040   -9.5190   14.7580 C.2    78  HIS78       0.2264
     50  O         26.1290   -9.5840   14.6380 O.2    78  HIS78      -0.2867
     51  CB        24.7170   -8.9160   12.3380 C.3    78  HIS78       0.0745
     52  CG        24.0390   -9.2450   11.0400 C.ar   78  HIS78       0.0817
     53  ND1       24.3010   -8.5090    9.8900 N.ar   78  HIS78      -0.2268
     54  CD2       23.1400  -10.1810   10.6760 C.ar   78  HIS78       0.1154
     55  CE1       23.5770   -9.0020    8.8890 C.ar   78  HIS78       0.1986
     56  NE2       22.8640  -10.0200    9.3450 N.ar   78  HIS78      -0.2212
     57  N         18.6370  -15.4230   15.7300 N.3    96  ASP96      -0.1239
     58  CA        18.3650  -15.6510   14.3040 C.3    96  ASP96       0.1674
     59  C         19.1490  -16.9040   13.9140 C.2    96  ASP96       0.2266
     60  O         20.3680  -16.9510   14.0480 O.2    96  ASP96      -0.2867
     61  CB        18.6720  -14.4340   13.4690 C.3    96  ASP96       0.1410
     62  CG        18.3060  -14.4950   11.9940 C.2    96  ASP96       0.3668
     63  OD1       17.8620  -15.5570   11.5580 O.co2  96  ASP96      -0.2456
     64  OD2       18.5560  -13.4710   11.3440 O.co2  96  ASP96      -0.2456
     65  N         18.2660   -3.0820    5.9470 N.3   167  TYR167     -0.1227
     66  CA        18.2370   -4.5400    6.0010 C.3   167  TYR167      0.1736
     67  C         16.8780   -5.0470    5.5380 C.2   167  TYR167      0.2595
     68  O         15.8650   -4.3980    5.8110 O.2   167  TYR167     -0.2718
     69  CB        18.5850   -5.0380    7.4120 C.3   167  TYR167      0.0548
     70  CG        20.0820   -4.8680    7.6480 C.ar  167  TYR167     -0.0200
     71  CD1       20.5790   -3.6740    8.1540 C.ar  167  TYR167     -0.0009
     72  CD2       20.9600   -5.8890    7.3420 C.ar  167  TYR167     -0.0009
     73  CE1       21.9510   -3.5410    8.3560 C.ar  167  TYR167      0.0417
     74  CE2       22.3210   -5.7670    7.5370 C.ar  167  TYR167      0.0417
     75  CZ        22.7960   -4.5750    8.0430 C.ar  167  TYR167      0.1957
     76  OH        24.1620   -4.4370    8.2490 O.3   167  TYR167     -0.2866
     77  N         16.8620   -6.1760    4.8270 N.am  168  CYS168     -0.1970
     78  CA        15.5980   -6.7090    4.3090 C.3   168  CYS168      0.1712
     79  C         15.5370   -8.2360    4.3790 C.2   168  CYS168      0.2296
     80  O         16.4860   -8.9230    4.7150 O.2   168  CYS168     -0.2864
     81  CB        15.4890   -6.2640    2.8420 C.3   168  CYS168      0.0983
     82  SG        16.9250   -6.7180    1.8460 S.3   168  CYS168     -0.0798
     83  N         14.7720  -11.8630    2.1340 N.3   170  HIS170     -0.1241
     84  CA        15.4800  -12.3710    0.9730 C.3   170  HIS170      0.1621
     85  C         14.9360  -13.7000    0.4800 C.2   170  HIS170      0.2264
     86  O         14.3780  -14.5010    1.2140 O.2   170  HIS170     -0.2867
     87  CB        16.9730  -12.5110    1.3440 C.3   170  HIS170      0.0745
     88  CG        17.1540  -13.3460    2.5770 C.ar  170  HIS170      0.0817
     89  ND1       17.3460  -14.7030    2.5960 N.ar  170  HIS170     -0.2268
     90  CD2       17.1320  -12.9260    3.8870 C.ar  170  HIS170      0.1154
     91  CE1       17.4620  -15.0900    3.8810 C.ar  170  HIS170      0.1986
     92  NE2       17.3230  -14.0290    4.6480 N.ar  170  HIS170     -0.2212
     93  N         21.5760  -19.1390    0.7400 N.3   176  PHE176     -0.1227
     94  CA        21.0930  -18.4430    1.9400 C.3   176  PHE176      0.1736
     95  C         20.3560  -17.1630    1.6010 C.2   176  PHE176      0.2595
     96  O         19.2290  -16.9470    2.0740 O.2   176  PHE176     -0.2718
     97  CB        22.3120  -18.1360    2.8010 C.3   176  PHE176      0.0547
     98  CG        22.1290  -17.7450    4.2470 C.ar  176  PHE176     -0.0202
     99  CD1       20.9350  -17.3610    4.8210 C.ar  176  PHE176     -0.0042
    100  CD2       23.2190  -17.7690    5.0810 C.ar  176  PHE176     -0.0042
    101  CE1       20.8280  -17.0080    6.1460 C.ar  176  PHE176     -0.0003
    102  CE2       23.1420  -17.4130    6.4060 C.ar  176  PHE176     -0.0003
    103  CZ        21.9390  -17.0270    6.9600 C.ar  176  PHE176     -0.0000
    104  N         20.9910  -16.2800    0.8440 N.am  177  HIS177     -0.1975
    105  CA        20.4860  -14.9600    0.5160 C.3   177  HIS177      0.1656
    106  C         20.4140  -14.9200   -1.0180 C.2   177  HIS177      0.2291
    107  O         21.4230  -14.6690   -1.6760 O.2   177  HIS177     -0.2864
    108  CB        21.3600  -13.8580    1.0940 C.3   177  HIS177      0.0771
    109  CG        21.5400  -13.8910    2.5840 C.ar  177  HIS177      0.0820
    110  ND1       22.5500  -14.5980    3.2040 N.ar  177  HIS177     -0.2267
    111  CD2       20.8520  -13.3190    3.5970 C.ar  177  HIS177      0.1154
    112  CE1       22.4860  -14.4640    4.5200 C.ar  177  HIS177      0.1986
    113  NE2       21.4610  -13.6940    4.7770 N.ar  177  HIS177     -0.2212
    114  N         11.3280  -10.3710    7.4330 N.3   203  GLU203     -0.1245
    115  CA        12.1110  -10.3070    8.6710 C.3   203  GLU203      0.1567
    116  C         12.2630   -8.8740    9.1380 C.2   203  GLU203      0.2260
    117  O         13.3570   -8.3050    9.2670 O.2   203  GLU203     -0.2867
    118  CB        13.4290  -11.0400    8.4800 C.3   203  GLU203      0.0388
    119  CG        14.3700  -10.4990    7.4120 C.3   203  GLU203      0.1160
    120  CD        15.6420  -11.3200    7.3430 C.2   203  GLU203      0.3649
    121  OE1       16.4850  -11.1290    8.2480 O.co2 203  GLU203     -0.2457
    122  OE2       15.7670  -12.1780    6.4540 O.co2 203  GLU203     -0.2457
    123  N         12.8280   -5.4920   10.9310 N.3   205  MET205     -0.1245
    124  CA        13.5910   -4.9040   12.0140 C.3   205  MET205      0.1570
    125  C         12.9130   -3.5850   12.3780 C.2   205  MET205      0.2261
    126  O         12.7990   -2.7060   11.5090 O.2   205  MET205     -0.2867
    127  CB        15.0500   -4.7580   11.6300 C.3   205  MET205      0.0387
    128  CG        15.7970   -6.0680   11.4450 C.3   205  MET205      0.0595
    129  SD        17.4100   -5.7970   10.7030 S.3   205  MET205     -0.1393
    130  CE        17.8630   -7.3670   10.0160 C.3   205  MET205      0.0692
    131  N         30.1820   -6.2040   11.3840 N.3   220  TRP220     -0.1241
    132  CA        29.1800   -7.1700   11.7600 C.3   220  TRP220      0.1605
    133  C         27.9770   -6.5410   12.4750 C.2   220  TRP220      0.2264
    134  O         26.8400   -6.7730   12.0620 O.2   220  TRP220     -0.2867
    135  CB        29.6720   -8.3190   12.6680 C.3   220  TRP220      0.0550
    136  CG        30.5540   -9.3160   11.9810 C.ar  220  TRP220      0.0003
    137  CD1       31.8560   -9.5730   12.3270 C.ar  220  TRP220      0.0946
    138  CD2       30.2640  -10.1760   10.8780 C.ar  220  TRP220      0.0152
    139  NE1       32.3880  -10.5340   11.5070 N.ar  220  TRP220     -0.2442
    140  CE2       31.4340  -10.9210   10.6060 C.ar  220  TRP220      0.0810
    141  CE3       29.1340  -10.3950   10.0790 C.ar  220  TRP220      0.0012
    142  CZ2       31.5170  -11.8660    9.5840 C.ar  220  TRP220      0.0191
    143  CZ3       29.2200  -11.3310    9.0680 C.ar  220  TRP220      0.0001
    144  CH2       30.3950  -12.0520    8.8260 C.ar  220  TRP220      0.0015
@<TRIPOS>BOND
     1   107   106    2
     2   106   105    1
     3    85    84    1
     4    85    86    2
     5   105   104    1
     6   105   108    1
     7    93    94    1
     8   104    95   am
     9    84    87    1
    10    84    83    1
    11   108   109    1
    12    27    28   ar
    13    27    25   ar
    14    87    88    1
    15    95    94    1
    16    95    96    2
    17    28    26   ar
    18    82    81    1
    19    94    97    1
    20    18    17    1
    21    25    24   ar
    22    88    89   ar
    23    88    90   ar
    24   109   110   ar
    25   109   111   ar
    26    89    91   ar
    27    97    98    1
    28    15    17   ar
    29    15    13   ar
    30    81    78    1
    31    17    16   ar
    32    26    24   ar
    33   110   112   ar
    34    24    23    1
    35   111   113   ar
    36    13    12   ar
    37    91    92   ar
    38    90    92   ar
    39    16    14   ar
    40    98    99   ar
    41    98   100   ar
    42    78    79    1
    43    78    77    1
    44    79    80    2
    45   112   113   ar
    46    23    20    1
    47    20    19    1
    48    20    21    1
    49    99   101   ar
    50    77    67   am
    51    19     9   am
    52    12    14   ar
    53    12    11    1
    54   100   102   ar
    55    67    68    2
    56    67    66    1
    57     9     8    1
    58     9    10    2
    59     8    11    1
    60     8     7    1
    61    65    66    1
    62    66    69    1
    63    21    22    2
    64   101   103   ar
    65   102   103   ar
    66   122   120   ar
    67    72    74   ar
    68    72    70   ar
    69   120   119    1
    70   120   121   ar
    71   119   118    1
    72    69    70    1
    73   114   115    1
    74    74    75   ar
    75    70    71   ar
    76    75    76    1
    77    75    73   ar
    78    71    73   ar
    79   118   115    1
    80   115   116    1
    81   144   143   ar
    82   144   142   ar
    83    55    56   ar
    84    55    53   ar
    85   143   141   ar
    86     1     2    1
    87   116   117    2
    88    29    30    1
    89    56    54   ar
    90     4     3    2
    91     2     3    1
    92     2     5    1
    93   142   140   ar
    94    53    52   ar
    95   130   129    1
    96   141   138   ar
    97    33    30    1
    98    33    34    1
    99    30    31    1
   100   140   138   ar
   101   140   139   ar
   102    54    52   ar
   103   129   128    1
   104     6     5    1
   105   138   136   ar
   106   123   124    1
   107    52    51    1
   108    32    31    2
   109    64    62   ar
   110   131   132    1
   111   128   127    1
   112    34    35   ar
   113    34    36   ar
   114   139   137   ar
   115   126   125    2
   116    63    62   ar
   117   127   124    1
   118   132   133    1
   119   132   135    1
   120   136   137   ar
   121   136   135    1
   122    35    37   ar
   123    62    61    1
   124   124   125    1
   125   134   133    2
   126    36    38   ar
   127    51    48    1
   128    46    45    1
   129    37    39   ar
   130    38    39   ar
   131    61    58    1
   132    48    47    1
   133    48    49    1
   134    39    40    1
   135    59    60    2
   136    59    58    1
   137    58    57    1
   138    45    42    1
   139    50    49    2
   140    41    42    1
   141    42    43    1
   142    44    43    2
