@<TRIPOS>MOLECULE
tmp/1yvzA00.pdb
 137 131 0 0 0
SMALL
GASTEIGER

@<TRIPOS>ATOM
      1  N         27.6110   51.4460    7.0690 N.3   419  ILE419     -0.1245
      2  CA        26.9440   52.4790    6.2900 C.3   419  ILE419      0.1561
      3  C         25.9520   51.8950    5.2860 C.2   419  ILE419      0.2260
      4  O         24.9400   52.5330    4.9710 O.2   419  ILE419     -0.2867
      5  CB        27.9600   53.3870    5.5510 C.3   419  ILE419      0.0252
      6  CG1       27.2360   54.6120    4.9810 C.3   419  ILE419      0.0019
      7  CG2       28.6580   52.6130    4.4410 C.3   419  ILE419      0.0019
      8  CD1       28.1750   55.7230    4.5110 C.3   419  ILE419      0.0001
      9  N         22.6910   50.9760    7.2420 N.3   422  ARG422     -0.1231
     10  CA        22.0240   52.2040    7.6510 C.3   422  ARG422      0.1694
     11  C         21.3770   53.0230    6.5360 C.2   422  ARG422      0.2591
     12  O         20.2410   53.4710    6.6720 O.2   422  ARG422     -0.2718
     13  CB        23.0100   53.0900    8.4240 C.3   422  ARG422      0.0321
     14  CG        23.5860   52.4290    9.6780 C.3   422  ARG422      0.0489
     15  CD        23.6270   53.4110   10.8410 C.3   422  ARG422      0.2205
     16  NE        24.8260   54.2280   10.8290 N.pl3 422  ARG422     -0.0865
     17  CZ        24.9520   55.3990   11.4410 C.cat 422  ARG422      0.5346
     18  NH1       26.1010   56.0390   11.3630 N.pl3 422  ARG422      0.1354
     19  NH2       23.9400   55.9380   12.1050 N.pl3 422  ARG422      0.1354
     20  N         22.0950   53.2210    5.4410 N.am  423  MET423     -0.1979
     21  CA        21.5710   54.0220    4.3450 C.3   423  MET423      0.1605
     22  C         20.7260   53.2460    3.3500 C.2   423  MET423      0.2287
     23  O         19.8000   53.8000    2.7500 O.2   423  MET423     -0.2864
     24  CB        22.7190   54.7080    3.5960 C.3   423  MET423      0.0413
     25  CG        23.4820   55.7220    4.4390 C.3   423  MET423      0.0598
     26  SD        24.7180   56.6270    3.4820 S.3   423  MET423     -0.1393
     27  CE        23.6780   57.8080    2.6030 C.3   423  MET423      0.0692
     28  N         27.5740   56.7150   14.3400 N.3   474  LEU474     -0.1231
     29  CA        28.8160   56.5490   13.5950 C.3   474  LEU474      0.1693
     30  C         28.8650   57.4440   12.3600 C.2   474  LEU474      0.2592
     31  O         27.8520   57.6690   11.7010 O.2   474  LEU474     -0.2718
     32  CB        28.9910   55.0850   13.1860 C.3   474  LEU474      0.0284
     33  CG        30.1320   54.3070   13.8450 C.3   474  LEU474      0.0019
     34  CD1       30.2190   54.6230   15.3270 C.3   474  LEU474      0.0001
     35  CD2       29.9200   52.8220   13.6140 C.3   474  LEU474      0.0001
     36  N         30.0500   57.9660   12.0590 N.am  475  HIS475     -0.1962
     37  CA        30.2240   58.8170   10.8920 C.3   475  HIS475      0.1787
     38  C         31.6890   58.8460   10.4790 C.2   475  HIS475      0.2621
     39  O         32.5610   58.3420   11.1930 O.2   475  HIS475     -0.2715
     40  CB        29.7320   60.2460   11.1730 C.3   475  HIS475      0.0785
     41  CG        30.5720   60.9970   12.1600 C.ar  475  HIS475      0.0821
     42  ND1       30.4940   60.7880   13.5200 N.ar  475  HIS475     -0.2267
     43  CD2       31.5190   61.9470   11.9810 C.ar  475  HIS475      0.1154
     44  CE1       31.3550   61.5770   14.1360 C.ar  475  HIS475      0.1986
     45  NE2       31.9900   62.2900   13.2240 N.ar  475  HIS475     -0.2212
     46  N         31.9510   59.4400    9.3200 N.am  476  THR476     -0.1937
     47  CA        33.3020   59.5360    8.7870 C.3   476  THR476      0.2028
     48  C         33.8720   58.1330    8.5540 C.2   476  THR476      0.2642
     49  O         34.8790   57.7430    9.1430 O.2   476  THR476     -0.2714
     50  CB        34.2280   60.3210    9.7430 C.3   476  THR476      0.1808
     51  OG1       33.6210   61.5770   10.0640 O.3   476  THR476     -0.2208
     52  CG2       35.5710   60.5850    9.0870 C.3   476  THR476      0.0379
     53  N         33.2020   57.3790    7.6900 N.am  477  TYR477     -0.1973
     54  CA        33.6230   56.0320    7.3470 C.3   477  TYR477      0.1639
     55  C         34.8760   56.1110    6.4820 C.2   477  TYR477      0.2290
     56  O         35.1810   57.1640    5.9380 O.2   477  TYR477     -0.2864
     57  CB        32.4890   55.3280    6.6020 C.3   477  TYR477      0.0560
     58  CG        31.3220   54.9720    7.4940 C.ar  477  TYR477     -0.0198
     59  CD1       31.2970   53.7630    8.1900 C.ar  477  TYR477     -0.0009
     60  CD2       30.2480   55.8470    7.6570 C.ar  477  TYR477     -0.0009
     61  CE1       30.2350   53.4280    9.0200 C.ar  477  TYR477      0.0417
     62  CE2       29.1740   55.5210    8.4920 C.ar  477  TYR477      0.0417
     63  CZ        29.1770   54.3100    9.1650 C.ar  477  TYR477      0.1957
     64  OH        28.1140   53.9670    9.9650 O.3   477  TYR477     -0.2866
     65  N         33.6220   53.0250    1.8450 N.3   482  LEU482     -0.1245
     66  CA        32.7180   53.7700    0.9720 C.3   482  LEU482      0.1561
     67  C         32.8320   53.3050   -0.4720 C.2   482  LEU482      0.2260
     68  O         31.8220   53.1480   -1.1710 O.2   482  LEU482     -0.2867
     69  CB        33.0140   55.2650    1.0560 C.3   482  LEU482      0.0270
     70  CG        32.7180   55.9360    2.3970 C.3   482  LEU482      0.0019
     71  CD1       33.1030   57.4090    2.3200 C.3   482  LEU482      0.0001
     72  CD2       31.2300   55.7880    2.7290 C.3   482  LEU482      0.0001
     73  N         29.8820   51.5530   -2.6410 N.3   486  ALA486     -0.1245
     74  CA        29.4920   52.1710   -3.9050 C.3   486  ALA486      0.1562
     75  C         29.6490   51.2010   -5.0720 C.2   486  ALA486      0.2260
     76  O         28.8280   51.1920   -5.9870 O.2   486  ALA486     -0.2867
     77  CB        30.3170   53.4400   -4.1530 C.3   486  ALA486      0.0290
     78  N         24.4770   55.7970   -3.0400 N.3   497  LEU497     -0.1231
     79  CA        24.2280   56.2800   -1.6890 C.3   497  LEU497      0.1693
     80  C         23.5820   57.6640   -1.6110 C.2   497  LEU497      0.2591
     81  O         22.6610   57.8750   -0.8220 O.2   497  LEU497     -0.2718
     82  CB        25.5370   56.2710   -0.8940 C.3   497  LEU497      0.0284
     83  CG        26.0620   54.8680   -0.5810 C.3   497  LEU497      0.0019
     84  CD1       27.4310   54.9460    0.0890 C.3   497  LEU497      0.0001
     85  CD2       25.0600   54.1520    0.3170 C.3   497  LEU497      0.0001
     86  N         24.0510   58.6070   -2.4220 N.am  498  ARG498     -0.1980
     87  CA        23.4850   59.9550   -2.3830 C.3   498  ARG498      0.1597
     88  C         21.9710   59.9590   -2.6070 C.2   498  ARG498      0.2287
     89  O         21.2750   60.8460   -2.1270 O.2   498  ARG498     -0.2864
     90  CB        24.1810   60.8730   -3.4010 C.3   498  ARG498      0.0334
     91  CG        24.0890   60.4450   -4.8570 C.3   498  ARG498      0.0492
     92  CD        24.8050   61.4560   -5.7480 C.3   498  ARG498      0.2205
     93  NE        24.8280   61.0530   -7.1510 N.pl3 498  ARG498     -0.0865
     94  CZ        25.5760   60.0680   -7.6450 C.cat 498  ARG498      0.5346
     95  NH1       26.3760   59.3650   -6.8560 N.pl3 498  ARG498      0.1354
     96  NH2       25.5290   59.7890   -8.9390 N.pl3 498  ARG498      0.1354
     97  N         20.2210   58.5600    0.6680 N.3   501  LYS501     -0.1245
     98  CA        20.2150   59.5730    1.7090 C.3   501  LYS501      0.1561
     99  C         18.9560   60.4270    1.5720 C.2   501  LYS501      0.2260
    100  O         18.3540   60.8210    2.5690 O.2   501  LYS501     -0.2867
    101  CB        21.4560   60.4560    1.6050 C.3   501  LYS501      0.0271
    102  CG        21.5310   61.4920    2.7130 C.3   501  LYS501      0.0035
    103  CD        22.7960   62.3320    2.6390 C.3   501  LYS501      0.0206
    104  CE        22.7680   63.4170    3.7040 C.3   501  LYS501      0.1093
    105  NZ        23.9460   64.3230    3.6140 N.3   501  LYS501     -0.1314
    106  N         20.9960   59.8390   11.3610 N.3   528  TRP528     -0.1241
    107  CA        22.0730   60.2110   10.4470 C.3   528  TRP528      0.1605
    108  C         21.5450   60.9540    9.2290 C.2   528  TRP528      0.2264
    109  O         22.2970   61.6470    8.5440 O.2   528  TRP528     -0.2867
    110  CB        22.8130   58.9680    9.9510 C.3   528  TRP528      0.0550
    111  CG        21.9210   57.9640    9.2490 C.ar  528  TRP528      0.0003
    112  CD1       21.3220   56.8740    9.8070 C.ar  528  TRP528      0.0946
    113  CD2       21.5260   57.9730    7.8680 C.ar  528  TRP528      0.0152
    114  NE1       20.5840   56.2030    8.8630 N.ar  528  TRP528     -0.2442
    115  CE2       20.6930   56.8560    7.6650 C.ar  528  TRP528      0.0810
    116  CE3       21.7970   58.8180    6.7820 C.ar  528  TRP528      0.0012
    117  CZ2       20.1270   56.5580    6.4190 C.ar  528  TRP528      0.0191
    118  CZ3       21.2370   58.5210    5.5430 C.ar  528  TRP528      0.0001
    119  CH2       20.4130   57.3990    5.3750 C.ar  528  TRP528      0.0015
    120  N         20.2090   66.9370    9.1400 N.3   531  LYS531     -0.1245
    121  CA        21.3170   67.8330    9.4670 C.3   531  LYS531      0.1561
    122  C         21.3180   68.2280   10.9420 C.2   531  LYS531      0.2260
    123  O         22.3720   68.2740   11.5780 O.2   531  LYS531     -0.2867
    124  CB        21.2710   69.0890    8.5850 C.3   531  LYS531      0.0271
    125  CG        21.3010   68.8050    7.0810 C.3   531  LYS531      0.0035
    126  CD        22.4940   67.9270    6.6930 C.3   531  LYS531      0.0206
    127  CE        22.4450   67.5060    5.2250 C.3   531  LYS531      0.1093
    128  NZ        23.5890   66.6180    4.8650 N.3   531  LYS531     -0.1314
    129  N         20.7110   66.8920   14.0890 N.3   533  LYS533     -0.1245
    130  CA        20.5290   65.6400   14.8070 C.3   533  LYS533      0.1561
    131  C         19.8240   65.7380   16.1490 C.2   533  LYS533      0.2260
    132  O         20.0120   66.6920   16.9040 O.2   533  LYS533     -0.2867
    133  CB        21.8790   64.9380   15.0040 C.3   533  LYS533      0.0271
    134  CG        22.4110   64.2360   13.7620 C.3   533  LYS533      0.0035
    135  CD        22.8920   65.2200   12.7130 C.3   533  LYS533      0.0206
    136  CE        23.4330   64.4890   11.4970 C.3   533  LYS533      0.1093
    137  NZ        24.4080   63.4520   11.9000 N.3   533  LYS533     -0.1314
@<TRIPOS>BOND
     1    96    94    1
     2    94    93    2
     3    94    95    1
     4    93    92    1
     5    76    75    2
     6    92    91    1
     7    75    74    1
     8    91    90    1
     9    77    74    1
    10    74    73    1
    11    90    87    1
    12    78    79    1
    13    88    87    1
    14    88    89    2
    15    86    87    1
    16    86    80   am
    17    79    80    1
    18    79    82    1
    19    80    81    2
    20    68    67    2
    21    82    83    1
    22    83    84    1
    23    83    85    1
    24    67    66    1
    25    97    98    1
    26    66    69    1
    27    66    65    1
    28    69    70    1
    29    99    98    1
    30    99   100    2
    31   101    98    1
    32   101   102    1
    33    71    70    1
    34    70    72    1
    35    27    26    1
    36   103   102    1
    37   103   104    1
    38    23    22    2
    39    22    21    1
    40    26    25    1
    41    24    21    1
    42    24    25    1
    43   105   104    1
    44    21    20    1
    45     7     5    1
    46     8     6    1
    47   128   127    1
    48     4     3    2
    49     6     5    1
    50   127   126    1
    51     3     2    1
    52   119   118   ar
    53   119   117   ar
    54    20    11   am
    55   118   116   ar
    56     5     2    1
    57    56    55    2
    58     2     1    1
    59   117   115   ar
    60    55    54    1
    61    11    12    2
    62    11    10    1
    63    57    54    1
    64    57    58    1
    65   126   125    1
    66   116   113   ar
    67   125   124    1
    68     9    10    1
    69    54    53    1
    70    58    60   ar
    71    58    59   ar
    72    10    13    1
    73    60    62   ar
    74   115   113   ar
    75   115   114   ar
    76    53    48   am
    77   113   111   ar
    78    59    61   ar
    79    13    14    1
    80    62    63   ar
    81   109   108    2
    82    48    47    1
    83    48    49    2
    84   124   121    1
    85    47    46    1
    86    47    50    1
    87   114   112   ar
    88    61    63   ar
    89    52    50    1
    90   120   121    1
    91    63    64    1
    92   108   107    1
    93   111   112   ar
    94   111   110    1
    95    46    38   am
    96   121   122    1
    97    14    15    1
    98    50    51    1
    99   110   107    1
   100   107   106    1
   101    38    37    1
   102    38    39    2
   103    16    15    1
   104    16    17    2
   105    37    40    1
   106    37    36    1
   107   122   123    2
   108    40    41    1
   109    18    17    1
   110    17    19    1
   111   136   137    1
   112   136   135    1
   113    31    30    2
   114    43    41   ar
   115    43    45   ar
   116    36    30   am
   117    41    42   ar
   118    30    29    1
   119   135   134    1
   120    32    29    1
   121    32    33    1
   122    45    44   ar
   123    42    44   ar
   124    29    28    1
   125    35    33    1
   126   134   133    1
   127    33    34    1
   128   129   130    1
   129   130   133    1
   130   130   131    1
   131   131   132    2
