@<TRIPOS>MOLECULE
tmp/1yw1A00.pdb
 84 82 0 0 0
SMALL
GASTEIGER

@<TRIPOS>ATOM
      1  N         -5.2910   76.0420   16.5670 N.3    11  HIS11      -0.1241
      2  CA        -6.6480   75.7840   17.0920 C.3    11  HIS11       0.1621
      3  C         -7.3660   77.0700   17.5220 C.2    11  HIS11       0.2264
      4  O         -8.2870   77.0380   18.3380 O.2    11  HIS11      -0.2867
      5  CB        -6.5900   74.7800   18.2530 C.3    11  HIS11       0.0745
      6  CG        -7.6730   73.7450   18.2510 C.ar   11  HIS11       0.0817
      7  ND1       -8.3250   73.3610   19.4040 N.ar   11  HIS11      -0.2268
      8  CD2       -8.2090   73.0020   17.2530 C.ar   11  HIS11       0.1154
      9  CE1       -9.2120   72.4210   19.1190 C.ar   11  HIS11       0.1986
     10  NE2       -9.1640   72.1880   17.8180 N.ar   11  HIS11      -0.2212
     11  N         -7.3760   70.6870   13.0060 N.3    53  ALA53      -0.1231
     12  CA        -8.3360   69.6780   13.4580 C.3    53  ALA53       0.1694
     13  C         -9.7130   70.1870   13.0570 C.2    53  ALA53       0.2592
     14  O         -9.8390   71.3220   12.6170 O.2    53  ALA53      -0.2718
     15  CB        -8.2470   69.5420   14.9620 C.3    53  ALA53       0.0304
     16  N        -10.7470   69.3720   13.2020 N.am   54  ASP54      -0.1960
     17  CA       -12.0730   69.7770   12.7560 C.3    54  ASP54       0.1840
     18  C        -13.1660   68.9080   13.3330 C.2    54  ASP54       0.2622
     19  O        -12.9230   67.7640   13.6950 O.2    54  ASP54      -0.2715
     20  CB       -12.1490   69.6100   11.2420 C.3    54  ASP54       0.1450
     21  CG       -13.2720   70.4080   10.6040 C.2    54  ASP54       0.3671
     22  OD1      -13.3300   71.6180   10.9130 O.co2  54  ASP54      -0.2456
     23  OD2      -14.0420   69.8310    9.7980 O.co2  54  ASP54      -0.2456
     24  N        -14.3810   69.4400   13.3820 N.am   55  GLY55      -0.1954
     25  CA       -15.5580   68.6670   13.7780 C.3    55  GLY55       0.1869
     26  C        -16.7770   69.2750   13.1160 C.2    55  GLY55       0.2309
     27  O        -16.7250   70.4300   12.6900 O.2    55  GLY55      -0.2863
     28  N        -20.2250   69.0930   14.3660 N.3    57  PHE57      -0.1227
     29  CA       -21.4230   69.2150   15.1830 C.3    57  PHE57       0.1736
     30  C        -21.1980   70.0030   16.4550 C.2    57  PHE57       0.2595
     31  O        -20.2180   69.7900   17.1500 O.2    57  PHE57      -0.2718
     32  CB       -21.9670   67.8370   15.5650 C.3    57  PHE57       0.0547
     33  CG       -23.3090   67.8990   16.2300 C.ar   57  PHE57      -0.0202
     34  CD1      -24.4490   68.1920   15.4890 C.ar   57  PHE57      -0.0042
     35  CD2      -23.4280   67.6890   17.5940 C.ar   57  PHE57      -0.0042
     36  CE1      -25.6930   68.2590   16.0970 C.ar   57  PHE57      -0.0003
     37  CE2      -24.6630   67.7500   18.2060 C.ar   57  PHE57      -0.0003
     38  CZ       -25.7940   68.0300   17.4650 C.ar   57  PHE57      -0.0000
     39  N        -22.1310   70.8990   16.7520 N.am   58  ILE58      -0.1980
     40  CA       -22.0720   71.6410   17.9940 C.3    58  ILE58       0.1595
     41  C        -23.3950   71.7020   18.7540 C.2    58  ILE58       0.2287
     42  O        -24.4750   71.3880   18.2470 O.2    58  ILE58      -0.2864
     43  CB       -21.5300   73.0480   17.7310 C.3    58  ILE58       0.0276
     44  CG1      -22.3930   73.7470   16.6880 C.3    58  ILE58       0.0022
     45  CG2      -20.0860   73.0250   17.2270 C.3    58  ILE58       0.0022
     46  CD1      -22.1440   75.2490   16.6680 C.3    58  ILE58       0.0001
     47  N        -15.2310   75.8610   18.8540 N.3    66  PHE66      -0.1241
     48  CA       -15.9110   74.9700   17.9440 C.3    66  PHE66       0.1605
     49  C        -17.1590   75.6690   17.4380 C.2    66  PHE66       0.2264
     50  O        -17.7520   75.2780   16.4240 O.2    66  PHE66      -0.2867
     51  CB       -16.3000   73.6840   18.6620 C.3    66  PHE66       0.0534
     52  CG       -15.1590   72.7740   18.9850 C.ar   66  PHE66      -0.0203
     53  CD1      -13.8520   73.1120   18.7100 C.ar   66  PHE66      -0.0042
     54  CD2      -15.4120   71.5600   19.6020 C.ar   66  PHE66      -0.0042
     55  CE1      -12.8290   72.2350   19.0330 C.ar   66  PHE66      -0.0003
     56  CE2      -14.3940   70.6820   19.9330 C.ar   66  PHE66      -0.0003
     57  CZ       -13.1030   71.0180   19.6470 C.ar   66  PHE66      -0.0000
     58  N        -15.5080   78.8700   13.7370 N.3    69  ARG69      -0.1245
     59  CA       -14.1550   78.7500   13.2260 C.3    69  ARG69       0.1563
     60  C        -14.1240   78.5220   11.7120 C.2    69  ARG69       0.2260
     61  O        -15.1310   78.2540   11.0800 O.2    69  ARG69      -0.2867
     62  CB       -13.4230   77.6290   13.9850 C.3    69  ARG69       0.0307
     63  CG       -14.1670   76.2910   13.9830 C.3    69  ARG69       0.0489
     64  CD       -13.2700   75.0520   14.1360 C.3    69  ARG69       0.2205
     65  NE       -14.0710   73.8750   14.4930 N.pl3  69  ARG69      -0.0865
     66  CZ       -13.5970   72.7260   14.9650 C.cat  69  ARG69       0.5346
     67  NH1      -12.2960   72.5570   15.1530 N.pl3  69  ARG69       0.1354
     68  NH2      -14.4380   71.7440   15.2600 N.pl3  69  ARG69       0.1354
     69  N        -16.5450   60.9470   15.2930 N.3   124  PRO124     -0.2102
     70  CA       -17.2680   60.4380   16.4520 C.3   124  PRO124      0.1504
     71  C        -18.6190   61.1070   16.7770 C.2   124  PRO124      0.2575
     72  O        -19.5450   60.3920   17.1610 O.2   124  PRO124     -0.2718
     73  CB       -16.2570   60.6450   17.5870 C.3   124  PRO124      0.0282
     74  CG       -15.4810   61.8640   17.1980 C.3   124  PRO124      0.0208
     75  CD       -15.6480   62.0520   15.6940 C.3   124  PRO124      0.0893
     76  N        -18.7610   62.4250   16.6240 N.am  125  GLN125     -0.1980
     77  CA       -19.9870   63.1200   16.9990 C.3   125  GLN125      0.1601
     78  C        -21.2590   62.5250   16.3690 C.2   125  GLN125      0.2287
     79  O        -21.5380   62.6560   15.1900 O.2   125  GLN125     -0.2864
     80  CB       -19.8480   64.5990   16.6440 C.3   125  GLN125      0.0394
     81  CG       -18.4730   65.2720   16.8660 C.3   125  GLN125      0.0908
     82  CD       -17.4510   65.2300   15.6960 C.2   125  GLN125      0.2608
     83  OE1      -17.7840   65.2530   14.4880 O.2   125  GLN125     -0.2717
     84  NE2      -16.1650   65.1860   16.0870 N.am  125  GLN125     -0.0878
@<TRIPOS>BOND
     1    23    21   ar
     2    21    22   ar
     3    21    20    1
     4    61    60    2
     5    20    17    1
     6    60    59    1
     7    14    13    2
     8    27    26    2
     9    17    16    1
    10    17    18    1
    11    11    12    1
    12    13    16   am
    13    13    12    1
    14    26    25    1
    15    59    58    1
    16    59    62    1
    17    18    24   am
    18    18    19    2
    19    24    25    1
    20    12    15    1
    21    63    62    1
    22    63    64    1
    23    64    65    1
    24    28    29    1
    25    83    82    2
    26    65    66    2
    27    66    67    1
    28    66    68    1
    29    29    32    1
    30    29    30    1
    31    79    78    2
    32    69    75    1
    33    69    70    1
    34    34    36   ar
    35    34    33   ar
    36    32    33    1
    37    75    74    1
    38    82    84   am
    39    82    81    1
    40    36    38   ar
    41    33    35   ar
    42    78    77    1
    43    50    49    2
    44    70    71    1
    45    70    73    1
    46    30    39   am
    47    30    31    2
    48     1     2    1
    49    76    71   am
    50    76    77    1
    51    80    81    1
    52    80    77    1
    53    46    44    1
    54    44    43    1
    55    39    40    1
    56    71    72    2
    57     2     3    1
    58     2     5    1
    59    74    73    1
    60    45    43    1
    61     8    10   ar
    62     8     6   ar
    63    49    48    1
    64    38    37   ar
    65     3     4    2
    66    35    37   ar
    67    43    40    1
    68    10     9   ar
    69    48    51    1
    70    48    47    1
    71    40    41    1
    72    42    41    2
    73     6     5    1
    74     6     7   ar
    75    51    52    1
    76    53    52   ar
    77    53    55   ar
    78    52    54   ar
    79    55    57   ar
    80     9     7   ar
    81    54    56   ar
    82    57    56   ar
