@<TRIPOS>MOLECULE
tmp/1yw2A00.pdb
 204 192 0 0 0
SMALL
GASTEIGER

@<TRIPOS>ATOM
      1  N         24.2120   47.0630   18.9300 N.3    27  VAL27      -0.1231
      2  CA        22.8470   47.2090   18.4390 C.3    27  VAL27       0.1692
      3  C         21.8610   46.9860   19.5790 C.2    27  VAL27       0.2593
      4  O         20.6480   47.0940   19.3970 O.2    27  VAL27      -0.2718
      5  CB        22.5570   46.2520   17.2680 C.3    27  VAL27       0.0266
      6  CG1       23.3870   46.6190   16.0440 C.3    27  VAL27       0.0020
      7  CG2       22.8350   44.8100   17.6550 C.3    27  VAL27       0.0020
      8  N         22.3670   46.6720   20.7730 N.am   28  GLY28      -0.1942
      9  CA        21.4670   46.4570   21.9030 C.3    28  GLY28       0.2014
     10  C         22.0420   45.5110   22.9410 C.2    28  GLY28       0.2639
     11  O         22.9890   44.7760   22.6420 O.2    28  GLY28      -0.2714
     12  N         21.4810   45.5320   24.1440 N.am   29  SER29      -0.1949
     13  CA        21.8920   44.6400   25.2210 C.3    29  SER29       0.1924
     14  C         20.8330   44.5090   26.3080 C.2    29  SER29       0.2314
     15  O         20.1150   45.4400   26.6620 O.2    29  SER29      -0.2863
     16  CB        23.2050   45.1010   25.8620 C.3    29  SER29       0.2116
     17  OG        23.1000   46.4130   26.3790 O.3    29  SER29      -0.2180
     18  N         24.2790   42.4370   21.7800 N.3    35  VAL35      -0.1245
     19  CA        24.3850   42.1460   20.3540 C.3    35  VAL35       0.1561
     20  C         25.1200   43.2710   19.6360 C.2    35  VAL35       0.2260
     21  O         25.1070   44.4190   20.0840 O.2    35  VAL35      -0.2867
     22  CB        22.9820   41.9420   19.7590 C.3    35  VAL35       0.0252
     23  CG1       23.0620   41.5790   18.2830 C.3    35  VAL35       0.0019
     24  CG2       22.2540   40.8710   20.5660 C.3    35  VAL35       0.0019
     25  N         24.1380   39.2200   12.8820 N.3    48  ALA48      -0.1245
     26  CA        24.0410   39.7080   14.2620 C.3    48  ALA48       0.1562
     27  C         24.9310   38.7930   15.1020 C.2    48  ALA48       0.2260
     28  O         24.8340   37.5800   14.8920 O.2    48  ALA48      -0.2867
     29  CB        22.6040   39.7500   14.7320 C.3    48  ALA48       0.0290
     30  N         25.7380   37.9230   19.0180 N.3    50  LYS50      -0.1245
     31  CA        25.2930   38.0280   20.3970 C.3    50  LYS50       0.1561
     32  C         26.3450   37.5210   21.3680 C.2    50  LYS50       0.2260
     33  O         26.6880   36.3380   21.3270 O.2    50  LYS50      -0.2867
     34  CB        23.9860   37.2420   20.5200 C.3    50  LYS50       0.0271
     35  CG        23.3040   37.2510   21.8740 C.3    50  LYS50       0.0035
     36  CD        21.9910   36.4670   21.7830 C.3    50  LYS50       0.0206
     37  CE        21.4790   36.0470   23.1540 C.3    50  LYS50       0.1093
     38  NZ        20.0100   36.2240   23.3060 N.3    50  LYS50      -0.1314
     39  N         19.3710   27.8190   25.3850 N.3    68  GLU68      -0.1245
     40  CA        19.4010   28.7080   24.2270 C.3    68  GLU68       0.1567
     41  C         20.2030   28.0880   23.0870 C.2    68  GLU68       0.2260
     42  O         19.6830   28.0400   21.9710 O.2    68  GLU68      -0.2867
     43  CB        19.9470   30.0890   24.5850 C.3    68  GLU68       0.0388
     44  CG        19.7800   31.1370   23.4900 C.3    68  GLU68       0.1160
     45  CD        20.0930   32.5350   23.9880 C.2    68  GLU68       0.3649
     46  OE1       19.8840   32.7950   25.1930 O.co2  68  GLU68      -0.2457
     47  OE2       20.5440   33.3870   23.1960 O.co2  68  GLU68      -0.2457
     48  N         18.4510   27.1000   19.4340 N.3    72  LEU72      -0.1245
     49  CA        19.0080   27.7500   18.2610 C.3    72  LEU72       0.1561
     50  C         19.6600   26.7330   17.3390 C.2    72  LEU72       0.2260
     51  O         19.6190   26.8780   16.1240 O.2    72  LEU72      -0.2867
     52  CB        20.0730   28.7810   18.6470 C.3    72  LEU72       0.0270
     53  CG        19.6200   30.1360   19.1820 C.3    72  LEU72       0.0019
     54  CD1       20.8090   30.9170   19.7330 C.3    72  LEU72       0.0001
     55  CD2       18.8890   30.9300   18.1060 C.3    72  LEU72       0.0001
     56  N         14.4930   32.4010   14.0000 N.3    81  ILE81      -0.1245
     57  CA        15.9310   32.6400   14.1430 C.3    81  ILE81       0.1561
     58  C         16.6920   31.3400   14.3620 C.2    81  ILE81       0.2260
     59  O         16.3180   30.5480   15.2320 O.2    81  ILE81      -0.2867
     60  CB        16.1500   33.6320   15.2970 C.3    81  ILE81       0.0252
     61  CG1       15.5680   35.0080   14.9620 C.3    81  ILE81       0.0019
     62  CG2       17.6020   33.7770   15.7100 C.3    81  ILE81       0.0019
     63  CD1       16.4230   35.7580   13.9550 C.3    81  ILE81       0.0001
     64  N         21.0760   29.5840   13.8690 N.3    83  LEU83      -0.1245
     65  CA        22.4970   29.8670   13.9830 C.3    83  LEU83       0.1561
     66  C         23.2260   29.7250   12.6430 C.2    83  LEU83       0.2260
     67  O         23.1780   28.6970   11.9620 O.2    83  LEU83      -0.2867
     68  CB        23.2010   28.9360   14.9790 C.3    83  LEU83       0.0270
     69  CG        23.2200   29.1720   16.4780 C.3    83  LEU83       0.0019
     70  CD1       24.2050   28.2120   17.1500 C.3    83  LEU83       0.0001
     71  CD2       23.5790   30.6050   16.8570 C.3    83  LEU83       0.0001
     72  N         27.0310   33.7280   19.5680 N.3   101  LEU101     -0.1231
     73  CA        26.0260   33.2080   18.6580 C.3   101  LEU101      0.1693
     74  C         25.9100   34.0810   17.4150 C.2   101  LEU101      0.2592
     75  O         25.8990   35.3120   17.5180 O.2   101  LEU101     -0.2718
     76  CB        24.6680   33.1070   19.3790 C.3   101  LEU101      0.0284
     77  CG        24.7420   32.4540   20.7700 C.3   101  LEU101      0.0019
     78  CD1       23.3900   32.5100   21.4760 C.3   101  LEU101      0.0001
     79  CD2       25.2670   31.0280   20.6510 C.3   101  LEU101      0.0001
     80  N         25.8300   33.4500   16.2480 N.am  102  VAL102     -0.1966
     81  CA        25.7450   34.1890   14.9920 C.3   102  VAL102      0.1727
     82  C         24.5010   33.7960   14.2020 C.2   102  VAL102      0.2617
     83  O         24.2490   32.6010   14.0800 O.2   102  VAL102     -0.2715
     84  CB        26.9550   33.9700   14.0580 C.3   102  VAL102      0.0290
     85  CG1       26.8270   34.8410   12.8150 C.3   102  VAL102      0.0023
     86  CG2       28.2650   34.2540   14.7770 C.3   102  VAL102      0.0023
     87  N         23.7980   34.7980   13.6950 N.am  103  THR103     -0.1937
     88  CA        22.6500   34.6210   12.8160 C.3   103  THR103      0.2028
     89  C         22.5680   35.7740   11.8110 C.2   103  THR103      0.2642
     90  O         23.3660   36.7230   11.8630 O.2   103  THR103     -0.2714
     91  CB        21.3530   34.4880   13.6380 C.3   103  THR103      0.1808
     92  OG1       20.3030   33.9870   12.8010 O.3   103  THR103     -0.2208
     93  CG2       20.8770   35.8350   14.1840 C.3   103  THR103      0.0379
     94  N         21.6170   35.7050   10.8900 N.am  104  HIS104     -0.1959
     95  CA        21.3580   36.7090    9.8600 C.3   104  HIS104      0.1787
     96  C         20.8450   37.9900   10.5070 C.2   104  HIS104      0.2620
     97  O         19.8360   38.0210   11.1970 O.2   104  HIS104     -0.2715
     98  CB        20.3580   36.2560    8.7890 C.3   104  HIS104      0.0785
     99  CG        20.1820   34.7680    8.7280 C.ar  104  HIS104      0.0821
    100  ND1       20.6130   34.0270    7.6500 N.ar  104  HIS104     -0.2267
    101  CD2       19.6330   33.8780    9.6000 C.ar  104  HIS104      0.1154
    102  CE1       20.3290   32.7520    7.8710 C.ar  104  HIS104      0.1986
    103  NE2       19.7350   32.6290    9.0490 N.ar  104  HIS104     -0.2212
    104  N         21.5660   39.0860   10.3050 N.am  105  LEU105     -0.1963
    105  CA        21.1460   40.3250   10.9410 C.3   105  LEU105      0.1728
    106  C         19.8380   40.7710   10.3110 C.2   105  LEU105      0.2616
    107  O         19.7480   40.7420    9.0780 O.2   105  LEU105     -0.2715
    108  CB        22.1920   41.4080   10.7580 C.3   105  LEU105      0.0311
    109  CG        21.8120   42.8000   11.2630 C.3   105  LEU105      0.0022
    110  CD1       22.1040   42.8460   12.7550 C.3   105  LEU105      0.0001
    111  CD2       22.5760   43.8500   10.4730 C.3   105  LEU105      0.0001
    112  N         18.8830   41.1490   11.1590 N.am  106  MET106     -0.1963
    113  CA        17.5920   41.5450   10.5620 C.3   106  MET106      0.1736
    114  C         17.4910   43.0650   10.6660 C.2   106  MET106      0.2617
    115  O         16.9570   43.7230    9.7740 O.2   106  MET106     -0.2715
    116  CB        16.4350   40.7880   11.1990 C.3   106  MET106      0.0427
    117  CG        16.5160   39.2740   11.0210 C.3   106  MET106      0.0599
    118  SD        15.9840   38.7380    9.3770 S.3   106  MET106     -0.1393
    119  CE        14.2620   39.2760    9.4300 C.3   106  MET106      0.0692
    120  N         18.0550   43.5550   11.7610 N.am  107  GLY107     -0.1940
    121  CA        18.2720   44.9480   12.0340 C.3   107  GLY107      0.2014
    122  C         17.1790   45.7100   12.7330 C.2   107  GLY107      0.2639
    123  O         17.3560   46.8870   13.0700 O.2   107  GLY107     -0.2714
    124  N         16.0180   45.1040   12.9760 N.am  108  ALA108     -0.1963
    125  CA        14.9530   45.8470   13.6430 C.3   108  ALA108      0.1728
    126  C         13.9000   44.8680   14.1460 C.2   108  ALA108      0.2616
    127  O         13.9220   43.7140   13.7100 O.2   108  ALA108     -0.2715
    128  CB        14.3300   46.8580   12.6950 C.3   108  ALA108      0.0334
    129  N         13.0140   45.3400   15.0080 N.am  109  ASP109     -0.1971
    130  CA        11.8970   44.4960   15.4470 C.3   109  ASP109      0.1709
    131  C         10.5900   45.0910   14.9160 C.2   109  ASP109      0.2293
    132  O         10.6550   46.1650   14.3190 O.2   109  ASP109     -0.2864
    133  CB        11.8960   44.3150   16.9520 C.3   109  ASP109      0.1436
    134  CG        11.3600   45.4260   17.8140 C.2   109  ASP109      0.3671
    135  OD1       11.5300   45.2980   19.0550 O.co2 109  ASP109     -0.2456
    136  OD2       10.7680   46.4280   17.3570 O.co2 109  ASP109     -0.2456
    137  N          9.9010   48.6000   15.8840 N.3   112  ASN112     -0.1240
    138  CA        10.9470   49.3330   15.2060 C.3   112  ASN112      0.1653
    139  C         10.6360   49.5170   13.7230 C.2   112  ASN112      0.2266
    140  O         11.1440   50.4280   13.0640 O.2   112  ASN112     -0.2867
    141  CB        12.2870   48.6060   15.3740 C.3   112  ASN112      0.1155
    142  CG        13.1500   49.0700   16.5250 C.2   112  ASN112      0.2627
    143  OD1       13.6520   48.2810   17.3360 O.2   112  ASN112     -0.2716
    144  ND2       13.3560   50.3810   16.6150 N.am  112  ASN112     -0.0877
    145  N          8.8540   42.7940   20.3730 N.3   151  SER151     -0.1217
    146  CA        10.3070   42.8670   20.4840 C.3   151  SER151      0.1889
    147  C         10.9490   41.4900   20.3190 C.2   151  SER151      0.2288
    148  O         12.1800   41.4040   20.2550 O.2   151  SER151     -0.2866
    149  CB        10.7340   43.4670   21.8260 C.3   151  SER151      0.2089
    150  OG        10.0180   42.8470   22.8730 O.3   151  SER151     -0.2183
    151  N         11.9320   39.5980   14.7760 N.3   154  ALA154     -0.1245
    152  CA        12.9790   40.3550   14.0810 C.3   154  ALA154      0.1562
    153  C         12.6370   40.5310   12.6000 C.2   154  ALA154      0.2260
    154  O         12.5800   39.5600   11.8430 O.2   154  ALA154     -0.2867
    155  CB        14.3280   39.6850   14.2570 C.3   154  ALA154      0.0290
    156  N         12.0970   35.2090   17.3420 N.3   164  LEU164     -0.1245
    157  CA        13.2690   34.8400   18.1440 C.3   164  LEU164      0.1561
    158  C         12.7870   34.2730   19.4710 C.2   164  LEU164      0.2260
    159  O         11.9340   34.8860   20.1070 O.2   164  LEU164     -0.2867
    160  CB        14.2140   36.0130   18.3250 C.3   164  LEU164      0.0270
    161  CG        13.5510   37.3430   18.6520 C.3   164  LEU164      0.0019
    162  CD1       13.3910   37.4370   20.1550 C.3   164  LEU164      0.0001
    163  CD2       14.4030   38.4780   18.1030 C.3   164  LEU164      0.0001
    164  N         14.7560   33.6630   22.2400 N.3   166  PHE166     -0.1227
    165  CA        15.3750   34.3210   23.3840 C.3   166  PHE166      0.1736
    166  C         16.0580   35.6070   22.9610 C.2   166  PHE166      0.2596
    167  O         16.9520   35.5870   22.1100 O.2   166  PHE166     -0.2718
    168  CB        16.4220   33.4350   24.0600 C.3   166  PHE166      0.0547
    169  CG        16.0190   31.9850   24.2270 C.ar  166  PHE166     -0.0202
    170  CD1       16.2260   31.0780   23.2010 C.ar  166  PHE166     -0.0042
    171  CD2       15.4420   31.5500   25.4070 C.ar  166  PHE166     -0.0042
    172  CE1       15.8630   29.7490   23.3280 C.ar  166  PHE166     -0.0003
    173  CE2       15.0720   30.2230   25.5390 C.ar  166  PHE166     -0.0003
    174  CZ        15.2810   29.3230   24.5060 C.ar  166  PHE166     -0.0000
    175  N         15.6980   36.7740   23.5120 N.am  167  GLY167     -0.1957
    176  CA        16.2800   37.4710   23.0060 C.3   167  GLY167      0.1869
    177  C         16.4590   38.6750   23.9580 C.2   167  GLY167      0.2309
    178  O         17.3660   38.6880   24.8010 O.2   167  GLY167     -0.2863
    179  N         14.2760   43.7540   24.3810 N.3   168  ALA168     -0.1231
    180  CA        12.9560   44.2140   24.7240 C.3   168  ALA168      0.1694
    181  C         12.6630   45.5660   24.2980 C.2   168  ALA168      0.2592
    182  O         11.4990   45.9010   24.2440 O.2   168  ALA168     -0.2718
    183  CB        12.7130   44.2490   26.2150 C.3   168  ALA168      0.0304
    184  N         13.7080   46.3520   24.1120 N.am  169  ARG169     -0.1966
    185  CA        13.4380   47.7450   23.9010 C.3   169  ARG169      0.1729
    186  C         14.7550   48.4130   23.6650 C.2   169  ARG169      0.2616
    187  O         15.6720   47.8840   23.0940 O.2   169  ARG169     -0.2715
    188  CB        12.7570   48.3330   25.1550 C.3   169  ARG169      0.0348
    189  CG        11.5890   49.3140   24.8860 C.3   169  ARG169      0.0492
    190  CD        10.8210   49.6800   26.1810 C.3   169  ARG169      0.2205
    191  NE         9.8080   48.6570   26.4730 N.pl3 169  ARG169     -0.0865
    192  CZ         8.5620   49.0340   26.8720 C.cat 169  ARG169      0.5346
    193  NH1        8.3360   50.2470   27.3620 N.pl3 169  ARG169      0.1354
    194  NH2        7.5240   48.3780   26.3390 N.pl3 169  ARG169      0.1354
    195  N         14.9080   49.5710   24.2660 N.am  170  HIS170     -0.1973
    196  CA        15.8310   50.4320   23.6180 C.3   170  HIS170      0.1656
    197  C         15.2350   51.8420   23.6060 C.2   170  HIS170      0.2291
    198  O         15.1000   52.4450   24.6600 O.2   170  HIS170     -0.2864
    199  CB        15.9210   49.8410   22.2240 C.3   170  HIS170      0.0771
    200  CG        14.7270   50.2660   21.4120 C.ar  170  HIS170      0.0820
    201  ND1       13.6900   50.9750   21.9240 N.ar  170  HIS170     -0.2267
    202  CD2       14.4910   50.0550   20.0500 C.ar  170  HIS170      0.1154
    203  CE1       12.8500   51.1850   20.8920 C.ar  170  HIS170      0.1986
    204  NE2       13.3030   50.6440   19.7590 N.ar  170  HIS170     -0.2212
@<TRIPOS>BOND
     1   100   102   ar
     2   100    99   ar
     3   102   103   ar
     4    99    98    1
     5    99   101   ar
     6    98    95    1
     7   103   101   ar
     8   107   106    2
     9   118   119    1
    10   118   117    1
    11   115   114    2
    12    95    96    1
    13    95    94    1
    14   104    96   am
    15   104   105    1
    16   106   105    1
    17   106   112   am
    18   111   109    1
    19    96    97    2
    20   113   114    1
    21   113   112    1
    22   113   116    1
    23   114   120   am
    24   108   105    1
    25   108   109    1
    26    94    89   am
    27   117   116    1
    28   109   110    1
    29   120   121    1
    30    89    90    2
    31    89    88    1
    32   154   153    2
    33    67    66    2
    34   121   122    1
    35   153   152    1
    36    66    65    1
    37   128   125    1
    38   122   124   am
    39   122   123    2
    40    92    91    1
    41    85    84    1
    42    88    91    1
    43    88    87    1
    44    25    26    1
    45   124   125    1
    46   140   139    2
    47    91    93    1
    48   125   126    1
    49    87    82   am
    50   127   126    2
    51   139   138    1
    52    64    65    1
    53    63    61    1
    54    65    68    1
    55    56    57    1
    56    84    86    1
    57    84    81    1
    58    83    82    2
    59   152   155    1
    60   152   151    1
    61    57    58    1
    62    57    60    1
    63   126   129   am
    64    82    81    1
    65    26    29    1
    66    26    27    1
    67   132   131    2
    68    58    59    2
    69    28    27    2
    70   131   130    1
    71    61    60    1
    72    68    69    1
    73    81    80    1
    74   129   130    1
    75   138   141    1
    76   138   137    1
    77    60    62    1
    78   141   142    1
    79   130   133    1
    80     6     5    1
    81    51    50    2
    82    80    74   am
    83    69    71    1
    84    69    70    1
    85   142   144   am
    86   142   143    2
    87   133   134    1
    88     5     7    1
    89     5     2    1
    90    50    49    1
    91   156   157    1
    92   136   134   ar
    93    74    75    2
    94    74    73    1
    95   134   135   ar
    96   163   161    1
    97    55    53    1
    98   157   160    1
    99   157   158    1
   100    49    52    1
   101    49    48    1
   102    23    22    1
   103   160   161    1
   104     2     1    1
   105     2     3    1
   106    52    53    1
   107   161   162    1
   108    73    76    1
   109    73    72    1
   110    30    31    1
   111    53    54    1
   112    76    77    1
   113     4     3    2
   114   158   159    2
   115     3     8   am
   116    20    21    2
   117    20    19    1
   118    22    19    1
   119    22    24    1
   120   204   202   ar
   121   204   203   ar
   122   202   200   ar
   123   148   147    2
   124   147   146    1
   125    19    18    1
   126   145   146    1
   127    31    34    1
   128    31    32    1
   129   146   149    1
   130    34    35    1
   131    79    77    1
   132    77    78    1
   133     8     9    1
   134   203   201   ar
   135    33    32    2
   136   200   201   ar
   137   200   199    1
   138    36    35    1
   139    36    37    1
   140   149   150    1
   141     9    10    1
   142    42    41    2
   143   167   166    2
   144   199   196    1
   145   164   165    1
   146    11    10    2
   147    10    12   am
   148   166   165    1
   149   166   175   am
   150   176   175    1
   151   176   177    1
   152    41    40    1
   153   187   186    2
   154    37    38    1
   155    47    45   ar
   156   170   172   ar
   157   170   169   ar
   158   172   174   ar
   159   165   168    1
   160    44    45    1
   161    44    43    1
   162   197   196    1
   163   197   198    2
   164   196   195    1
   165   186   185    1
   166   186   195   am
   167   185   184    1
   168   185   188    1
   169   177   178    2
   170    45    46   ar
   171   168   169    1
   172   184   181   am
   173    12    13    1
   174    40    43    1
   175    40    39    1
   176   169   171   ar
   177   182   181    2
   178   181   180    1
   179   179   180    1
   180   174   173   ar
   181   180   183    1
   182   189   188    1
   183   189   190    1
   184    13    16    1
   185    13    14    1
   186   171   173   ar
   187    16    17    1
   188   190   191    1
   189    14    15    2
   190   194   192    1
   191   191   192    2
   192   192   193    1
