@<TRIPOS>MOLECULE
tmp/1yw8A00.pdb
 158 150 0 0 0
SMALL
GASTEIGER

@<TRIPOS>ATOM
      1  N         23.2890   31.1230    9.8370 N.3   110  PHE110     -0.1241
      2  CA        23.3600   31.9700   11.0220 C.3   110  PHE110      0.1605
      3  C         24.8020   31.9920   11.4990 C.2   110  PHE110      0.2264
      4  O         25.6120   31.1930   11.0490 O.2   110  PHE110     -0.2867
      5  CB        22.4160   31.4870   12.1450 C.3   110  PHE110      0.0534
      6  CG        22.4420   30.0050   12.3950 C.ar  110  PHE110     -0.0203
      7  CD1       21.6020   29.1560   11.6930 C.ar  110  PHE110     -0.0042
      8  CD2       23.2990   29.4610   13.3400 C.ar  110  PHE110     -0.0042
      9  CE1       21.6170   27.7820   11.9310 C.ar  110  PHE110     -0.0003
     10  CE2       23.3200   28.0910   13.5840 C.ar  110  PHE110     -0.0003
     11  CZ        22.4800   27.2490   12.8800 C.ar  110  PHE110     -0.0000
     12  N         23.5270   28.9640   24.4640 N.3   121  ALA121     -0.1231
     13  CA        23.1830   29.3170   23.1010 C.3   121  ALA121      0.1694
     14  C         23.3410   30.7930   22.7380 C.2   121  ALA121      0.2592
     15  O         23.3280   31.6720   23.6010 O.2   121  ALA121     -0.2718
     16  CB        21.7540   28.8690   22.8210 C.3   121  ALA121      0.0304
     17  N         23.5230   31.0360   21.4430 N.am  122  HIS122     -0.1976
     18  CA        23.6380   32.3770   20.8930 C.3   122  HIS122      0.1656
     19  C         24.7970   33.2920   21.2460 C.2   122  HIS122      0.2291
     20  O         24.6450   34.5110   21.2270 O.2   122  HIS122     -0.2864
     21  CB        22.3250   33.1050   21.1250 C.3   122  HIS122      0.0771
     22  CG        21.1640   32.4280   20.4750 C.ar  122  HIS122      0.0820
     23  ND1       19.8640   32.8500   20.6380 N.ar  122  HIS122     -0.2267
     24  CD2       21.1150   31.3620   19.6420 C.ar  122  HIS122      0.1154
     25  CE1       19.0630   32.0740   19.9300 C.ar  122  HIS122      0.1986
     26  NE2       19.7990   31.1630   19.3170 N.ar  122  HIS122     -0.2212
     27  N         27.5420   25.7280   17.3700 N.3   142  ASP142     -0.1239
     28  CA        26.2750   25.7050   16.6730 C.3   142  ASP142      0.1674
     29  C         26.3000   26.6080   15.4520 C.2   142  ASP142      0.2266
     30  O         26.1750   27.8260   15.5830 O.2   142  ASP142     -0.2867
     31  CB        25.1800   26.1730   17.6160 C.3   142  ASP142      0.1410
     32  CG        23.8180   25.6880   17.2060 C.2   142  ASP142      0.3668
     33  OD1       23.5510   25.5970   15.9910 O.co2 142  ASP142     -0.2456
     34  OD2       23.0120   25.4060   18.1100 O.co2 142  ASP142     -0.2456
     35  N         20.2840   23.3710   10.5220 N.3   153  ASP153     -0.1239
     36  CA        20.6260   23.8060   11.8690 C.3   153  ASP153      0.1674
     37  C         21.1090   22.5500   12.5830 C.2   153  ASP153      0.2266
     38  O         20.3120   21.6690   12.9030 O.2   153  ASP153     -0.2867
     39  CB        19.3910   24.3760   12.5600 C.3   153  ASP153      0.1410
     40  CG        19.6990   24.9270   13.9230 C.2   153  ASP153      0.3668
     41  OD1       18.7420   25.2650   14.6520 O.co2 153  ASP153     -0.2456
     42  OD2       20.8970   25.0220   14.2590 O.co2 153  ASP153     -0.2456
     43  N         14.4580   26.4160   26.8000 N.3   219  LEU219     -0.1231
     44  CA        15.1620   26.2870   25.5240 C.3   219  LEU219      0.1693
     45  C         14.4150   25.1950   24.7920 C.2   219  LEU219      0.2592
     46  O         13.5660   24.5450   25.3920 O.2   219  LEU219     -0.2718
     47  CB        16.6250   25.8890   25.7170 C.3   219  LEU219      0.0284
     48  CG        17.5520   27.0560   26.0680 C.3   219  LEU219      0.0019
     49  CD1       18.9970   26.6030   26.0690 C.3   219  LEU219      0.0001
     50  CD2       17.3490   28.1730   25.0620 C.3   219  LEU219      0.0001
     51  N         14.7110   24.9680   23.5160 N.am  220  ASN220     -0.1974
     52  CA        13.9580   23.9470   22.7910 C.3   220  ASN220      0.1688
     53  C         14.2860   23.8060   21.3110 C.2   220  ASN220      0.2292
     54  O         15.1270   24.5150   20.7760 O.2   220  ASN220     -0.2864
     55  CB        12.4790   24.2650   22.9170 C.3   220  ASN220      0.1181
     56  CG        12.1610   25.6800   22.4750 C.2   220  ASN220      0.2629
     57  OD1       12.3780   26.0370   21.3210 O.2   220  ASN220     -0.2716
     58  ND2       11.6560   26.4990   23.3990 N.am  220  ASN220     -0.0877
     59  N         12.8040   23.4370   17.1510 N.3   222  HIS222     -0.1241
     60  CA        11.9110   24.2740   16.3650 C.3   222  HIS222      0.1621
     61  C         11.7180   23.8320   14.9150 C.2   222  HIS222      0.2264
     62  O         12.5700   23.1500   14.3380 O.2   222  HIS222     -0.2867
     63  CB        12.4480   25.7000   16.3860 C.3   222  HIS222      0.0745
     64  CG        13.8730   25.8100   15.9400 C.ar  222  HIS222      0.0817
     65  ND1       14.2300   26.0160   14.6250 N.ar  222  HIS222     -0.2268
     66  CD2       15.0330   25.7010   16.6290 C.ar  222  HIS222      0.1154
     67  CE1       15.5460   26.0310   14.5230 C.ar  222  HIS222      0.1986
     68  NE2       16.0580   25.8420   15.7240 N.ar  222  HIS222     -0.2212
     69  N         14.7000   30.6500   10.2480 N.3   229  ILE229     -0.1231
     70  CA        15.2360   29.7450   11.2570 C.3   229  ILE229      0.1692
     71  C         14.1810   29.2200   12.2350 C.2   229  ILE229      0.2592
     72  O         14.3560   28.1640   12.8320 O.2   229  ILE229     -0.2718
     73  CB        16.3850   30.4090   12.0400 C.3   229  ILE229      0.0266
     74  CG1       17.0860   29.3600   12.8990 C.3   229  ILE229      0.0019
     75  CG2       15.8520   31.5420   12.8990 C.3   229  ILE229      0.0020
     76  CD1       17.5660   28.1740   12.1170 C.3   229  ILE229      0.0001
     77  N         13.0850   29.9470   12.3920 N.am  230  HIS230     -0.1976
     78  CA        12.0190   29.5100   13.2840 C.3   230  HIS230      0.1656
     79  C         10.6700   29.6920   12.5930 C.2   230  HIS230      0.2291
     80  O         10.0570   30.7560   12.6600 O.2   230  HIS230     -0.2864
     81  CB        12.0650   30.2980   14.5960 C.3   230  HIS230      0.0771
     82  CG        11.0950   29.8100   15.6280 C.ar  230  HIS230      0.0820
     83  ND1       11.1730   30.1790   16.9540 N.ar  230  HIS230     -0.2267
     84  CD2       10.0100   29.0050   15.5230 C.ar  230  HIS230      0.1154
     85  CE1       10.1770   29.6230   17.6220 C.ar  230  HIS230      0.1986
     86  NE2        9.4560   28.9070   16.7770 N.ar  230  HIS230     -0.2212
     87  N         16.8290   19.6820   18.9590 N.3   255  GLU255     -0.1245
     88  CA        17.9740   19.9930   19.7990 C.3   255  GLU255      0.1567
     89  C         17.5860   20.0030   21.2660 C.2   255  GLU255      0.2260
     90  O         16.4970   20.4460   21.6210 O.2   255  GLU255     -0.2867
     91  CB        18.5740   21.3500   19.4030 C.3   255  GLU255      0.0388
     92  CG        17.9520   22.5830   20.0640 C.3   255  GLU255      0.1160
     93  CD        18.2000   23.8770   19.2730 C.2   255  GLU255      0.3649
     94  OE1       17.2730   24.3140   18.5640 O.co2 255  GLU255     -0.2457
     95  OE2       19.3080   24.4520   19.3410 O.co2 255  GLU255     -0.2457
     96  N         19.2210   20.6340   25.4060 N.3   257  PHE257     -0.1241
     97  CA        20.2800   21.2710   26.1820 C.3   257  PHE257      0.1605
     98  C         20.2390   20.7260   27.5930 C.2   257  PHE257      0.2264
     99  O         19.1780   20.6820   28.2110 O.2   257  PHE257     -0.2867
    100  CB        20.0580   22.7860   26.2510 C.3   257  PHE257      0.0534
    101  CG        20.1490   23.4870   24.9280 C.ar  257  PHE257     -0.0203
    102  CD1       21.3210   24.1280   24.5450 C.ar  257  PHE257     -0.0042
    103  CD2       19.0620   23.5350   24.0790 C.ar  257  PHE257     -0.0042
    104  CE1       21.4060   24.8110   23.3350 C.ar  257  PHE257     -0.0003
    105  CE2       19.1370   24.2170   22.8670 C.ar  257  PHE257     -0.0003
    106  CZ        20.3120   24.8550   22.4980 C.ar  257  PHE257     -0.0000
    107  N         24.0990   38.4360   18.0670 N.3   273  HIS273     -0.1241
    108  CA        23.1700   37.9300   17.0660 C.3   273  HIS273      0.1621
    109  C         21.9850   38.8510   16.7990 C.2   273  HIS273      0.2264
    110  O         21.3850   39.4070   17.7240 O.2   273  HIS273     -0.2867
    111  CB        22.6670   36.5450   17.4670 C.3   273  HIS273      0.0745
    112  CG        23.7560   35.5300   17.6200 C.ar  273  HIS273      0.0817
    113  ND1       23.5410   34.1790   17.4610 N.ar  273  HIS273     -0.2268
    114  CD2       25.0640   35.6670   17.9370 C.ar  273  HIS273      0.1154
    115  CE1       24.6700   33.5270   17.6720 C.ar  273  HIS273      0.1986
    116  NE2       25.6100   34.4070   17.9640 N.ar  273  HIS273     -0.2212
    117  N         18.5710   39.5590   13.7370 N.3   275  MET275     -0.1245
    118  CA        17.8290   38.9930   12.6300 C.3   275  MET275      0.1570
    119  C         16.6000   39.7920   12.2650 C.2   275  MET275      0.2261
    120  O         15.7890   40.1270   13.1220 O.2   275  MET275     -0.2867
    121  CB        17.4200   37.5620   12.9510 C.3   275  MET275      0.0387
    122  CG        16.6390   36.8960   11.8420 C.3   275  MET275      0.0595
    123  SD        16.4920   35.1270   12.0970 S.3   275  MET275     -0.1393
    124  CE        15.3090   35.0730   13.4230 C.3   275  MET275      0.0692
    125  N         19.8040   35.1910   10.0880 N.3   305  ALA305     -0.1245
    126  CA        20.5370   35.8340   11.1730 C.3   305  ALA305      0.1562
    127  C         21.9790   36.2010   10.8170 C.2   305  ALA305      0.2260
    128  O         22.6170   35.5840    9.9550 O.2   305  ALA305     -0.2867
    129  CB        20.5210   34.9400   12.4130 C.3   305  ALA305      0.0290
    130  N         19.2930   38.9740   19.3880 N.3   335  TYR335     -0.1241
    131  CA        19.2880   37.6400   19.9790 C.3   335  TYR335      0.1605
    132  C         20.5030   37.4610   20.8870 C.2   335  TYR335      0.2264
    133  O         21.5280   36.9220   20.4920 O.2   335  TYR335     -0.2867
    134  CB        19.2580   36.5870   18.8740 C.3   335  TYR335      0.0534
    135  CG        17.9230   36.5420   18.1630 C.ar  335  TYR335     -0.0201
    136  CD1       16.8650   35.7820   18.6690 C.ar  335  TYR335     -0.0009
    137  CD2       17.7000   37.2870   17.0010 C.ar  335  TYR335     -0.0009
    138  CE1       15.6300   35.7640   18.0410 C.ar  335  TYR335      0.0417
    139  CE2       16.4650   37.2750   16.3670 C.ar  335  TYR335      0.0417
    140  CZ        15.4370   36.5070   16.8940 C.ar  335  TYR335      0.1957
    141  OH        14.2230   36.4690   16.2530 O.3   335  TYR335     -0.2866
    142  N         22.1020   33.1670   25.7570 N.3   338  LEU338     -0.1245
    143  CA        21.2170   32.5870   26.7550 C.3   338  LEU338      0.1561
    144  C         22.0670   31.7320   27.6850 C.2   338  LEU338      0.2260
    145  O         22.5130   30.6470   27.3100 O.2   338  LEU338     -0.2867
    146  CB        20.1540   31.7400   26.0580 C.3   338  LEU338      0.0270
    147  CG        19.4940   32.5070   24.9170 C.3   338  LEU338      0.0019
    148  CD1       18.4210   31.6620   24.2730 C.3   338  LEU338      0.0001
    149  CD2       18.9110   33.8050   25.4660 C.3   338  LEU338      0.0001
    150  N         22.2530   18.9600   18.2960 N.3   350  GLU350     -0.1245
    151  CA        21.1830   19.3100   17.3720 C.3   350  GLU350      0.1567
    152  C         21.3130   18.6560   16.0100 C.2   350  GLU350      0.2260
    153  O         22.4130   18.3430   15.5510 O.2   350  GLU350     -0.2867
    154  CB        21.1580   20.8220   17.1910 C.3   350  GLU350      0.0388
    155  CG        19.9830   21.3420   16.4210 C.3   350  GLU350      0.1160
    156  CD        19.9430   22.8600   16.3980 C.2   350  GLU350      0.3649
    157  OE1       18.8250   23.4140   16.2790 O.co2 350  GLU350     -0.2457
    158  OE2       21.0260   23.4910   16.4890 O.co2 350  GLU350     -0.2457
@<TRIPOS>BOND
     1     1     2    1
     2   128   127    2
     3   125   126    1
     4    69    70    1
     5    35    36    1
     6   127   126    1
     7     2     3    1
     8     2     5    1
     9     4     3    2
    10   126   129    1
    11    70    73    1
    12    70    71    1
    13     7     9   ar
    14     7     6   ar
    15   122   123    1
    16   122   121    1
    17    36    39    1
    18    36    37    1
    19     9    11   ar
    20    73    74    1
    21    73    75    1
    22   123   124    1
    23    76    74    1
    24     5     6    1
    25    71    77   am
    26    71    72    2
    27   119   118    1
    28   119   120    2
    29    77    78    1
    30     6     8   ar
    31    39    40    1
    32    37    38    2
    33    79    80    2
    34    79    78    1
    35   118   121    1
    36   118   117    1
    37    11    10   ar
    38    78    81    1
    39     8    10   ar
    40    40    42   ar
    41    40    41   ar
    42    62    61    2
    43    67    65   ar
    44    67    68   ar
    45    81    82    1
    46    65    64   ar
    47    61    60    1
    48    29    30    2
    49    29    28    1
    50    84    82   ar
    51    84    86   ar
    52   153   152    2
    53    82    83   ar
    54    68    66   ar
    55    64    63    1
    56    64    66   ar
    57    33    32   ar
    58   152   151    1
    59   141   140    1
    60   157   156   ar
    61    60    63    1
    62    60    59    1
    63   139   140   ar
    64   139   137   ar
    65   156   155    1
    66   156   158   ar
    67   155   154    1
    68    28    27    1
    69    28    31    1
    70    86    85   ar
    71   109   108    1
    72   109   110    2
    73   140   138   ar
    74    83    85   ar
    75   137   135   ar
    76   108   111    1
    77   108   107    1
    78   154   151    1
    79    32    31    1
    80    32    34   ar
    81   151   150    1
    82   113   112   ar
    83   113   115   ar
    84   111   112    1
    85   112   114   ar
    86   115   116   ar
    87   114   116   ar
    88   138   136   ar
    89   135   136   ar
    90   135   134    1
    91    94    93   ar
    92   134   131    1
    93    87    88    1
    94    93    95   ar
    95    93    92    1
    96    26    24   ar
    97    26    25   ar
    98   130   131    1
    99    91    88    1
   100    91    92    1
   101    24    22   ar
   102    88    89    1
   103    25    23   ar
   104   131   132    1
   105    22    23   ar
   106    22    21    1
   107   133   132    2
   108    54    53    2
   109    18    21    1
   110    18    19    1
   111    18    17    1
   112    20    19    2
   113    89    90    2
   114    53    52    1
   115    57    56    2
   116    17    14   am
   117    56    55    1
   118    56    58   am
   119   106   105   ar
   120   106   104   ar
   121    14    13    1
   122    14    15    2
   123    52    55    1
   124    52    51    1
   125    16    13    1
   126   105   103   ar
   127    13    12    1
   128   104   102   ar
   129    51    45   am
   130   103   101   ar
   131   148   147    1
   132   102   101   ar
   133    45    46    2
   134    45    44    1
   135   147   149    1
   136   147   146    1
   137   101   100    1
   138    50    48    1
   139    96    97    1
   140    44    47    1
   141    44    43    1
   142    47    48    1
   143   142   143    1
   144   146   143    1
   145    48    49    1
   146    97   100    1
   147    97    98    1
   148   143   144    1
   149   145   144    2
   150    98    99    2
