@<TRIPOS>MOLECULE
tmp/1ywhK00.pdb
 96 92 0 0 0
SMALL
GASTEIGER

@<TRIPOS>ATOM
      1  N         67.8910   28.4140   44.9970 N.3    51  THR51      -0.1203
      2  CA        66.6090   29.0910   45.3030 C.3    51  THR51       0.1994
      3  C         65.4690   28.5730   44.4290 C.2    51  THR51       0.2618
      4  O         65.7070   27.8960   43.4350 O.2    51  THR51      -0.2717
      5  CB        66.6970   30.6190   45.0720 C.3    51  THR51       0.1784
      6  OG1       66.8500   30.8800   43.6670 O.3    51  THR51      -0.2211
      7  CG2       67.9370   31.2470   45.7180 C.3    51  THR51       0.0376
      8  N         64.2340   28.9070   44.8000 N.am   52  ASN52      -0.1960
      9  CA        63.0580   28.6670   43.9630 C.3    52  ASN52       0.1819
     10  C         63.2600   29.2750   42.5960 C.2    52  ASN52       0.2621
     11  O         63.7680   30.3860   42.4850 O.2    52  ASN52      -0.2715
     12  CB        61.8020   29.2970   44.5730 C.3    52  ASN52       0.1195
     13  CG        61.2660   28.5220   45.7530 C.2    52  ASN52       0.2630
     14  OD1       61.7390   27.4280   46.0410 O.2    52  ASN52      -0.2716
     15  ND2       60.2690   29.1030   46.4510 N.am   52  ASN52      -0.0877
     16  N         62.8750   28.5310   41.5610 N.am   53  ARG53      -0.1963
     17  CA        62.9560   29.0140   40.1820 C.3    53  ARG53       0.1729
     18  C         61.9700   28.2780   39.2860 C.2    53  ARG53       0.2616
     19  O         61.5410   27.1770   39.6100 O.2    53  ARG53      -0.2715
     20  CB        64.3850   28.9100   39.6390 C.3    53  ARG53       0.0348
     21  CG        64.8690   27.4970   39.4190 C.3    53  ARG53       0.0492
     22  CD        66.3740   27.3800   39.2960 C.3    53  ARG53       0.2205
     23  NE        67.0240   28.1430   40.3480 N.pl3  53  ARG53      -0.0865
     24  CZ        68.2900   28.5120   40.3280 C.cat  53  ARG53       0.5346
     25  NH1       69.0530   28.1730   39.2910 N.pl3  53  ARG53       0.1354
     26  NH2       68.7890   29.2220   41.3420 N.pl3  53  ARG53       0.1354
     27  N         61.6620   28.8790   38.1390 N.am   54  THR54      -0.1951
     28  CA        60.4970   28.5040   37.3570 C.3    54  THR54       0.1897
     29  C         60.6620   28.7990   35.8620 C.2    54  THR54       0.2313
     30  O         61.2930   29.7970   35.4820 O.2    54  THR54      -0.2863
     31  CB        59.3140   29.2580   37.9510 C.3    54  THR54       0.1794
     32  OG1       58.7100   28.4290   38.9380 O.3    54  THR54      -0.2208
     33  CG2       58.2110   29.4530   36.9840 C.3    54  THR54       0.0378
     34  N         59.4400   23.5880   37.3530 N.3    67  THR67      -0.1218
     35  CA        59.5250   24.1110   38.7100 C.3    67  THR67       0.1862
     36  C         60.7310   23.5060   39.4560 C.2    67  THR67       0.2287
     37  O         60.9990   22.3050   39.3170 O.2    67  THR67      -0.2866
     38  CB        58.1990   23.8150   39.4580 C.3    67  THR67       0.1770
     39  OG1       57.1330   24.5760   38.8760 O.3    67  THR67      -0.2211
     40  CG2       58.2400   24.3860   40.8560 C.3    67  THR67       0.0375
     41  N         61.6170   23.8960   43.5160 N.3    69  VAL69      -0.1231
     42  CA        61.4080   24.5210   44.8020 C.3    69  VAL69       0.1692
     43  C         62.4790   24.0440   45.7540 C.2    69  VAL69       0.2591
     44  O         63.0790   22.9870   45.5690 O.2    69  VAL69      -0.2718
     45  CB        59.9650   24.3660   45.3650 C.3    69  VAL69       0.0266
     46  CG1       58.9280   24.5730   44.2660 C.3    69  VAL69       0.0020
     47  CG2       59.7730   23.0260   46.0330 C.3    69  VAL69       0.0020
     48  N         62.7050   24.8400   46.7780 N.am   70  VAL70      -0.1980
     49  CA        63.8180   24.6400   47.6570 C.3    70  VAL70       0.1595
     50  C         63.3010   24.8170   49.0790 C.2    70  VAL70       0.2287
     51  O         62.2920   25.4890   49.2900 O.2    70  VAL70      -0.2864
     52  CB        64.9430   25.6540   47.2860 C.3    70  VAL70       0.0276
     53  CG1       64.9470   26.8780   48.2000 C.3    70  VAL70       0.0022
     54  CG2       66.2920   24.9580   47.2480 C.3    70  VAL70       0.0022
     55  N         64.6030   22.2220   55.5900 N.3    73  LEU73      -0.1245
     56  CA        64.1620   21.3690   56.7020 C.3    73  LEU73       0.1561
     57  C         64.2740   19.8940   56.3190 C.2    73  LEU73       0.2260
     58  O         64.1650   19.5720   55.1520 O.2    73  LEU73      -0.2867
     59  CB        62.7250   21.7290   57.1250 C.3    73  LEU73       0.0270
     60  CG        62.4510   23.2310   57.3240 C.3    73  LEU73       0.0019
     61  CD1       61.9490   23.9090   56.0180 C.3    73  LEU73       0.0001
     62  CD2       61.4810   23.4590   58.4570 C.3    73  LEU73       0.0001
     63  N         52.1930   31.7550   37.3800 N.3   106  SER106     -0.1203
     64  CA        52.6010   32.1560   38.7310 C.3   106  SER106      0.2005
     65  C         52.7490   33.6660   38.8950 C.2   106  SER106      0.2461
     66  O         53.1580   34.3500   37.9600 O.2   106  SER106     -0.2732
     67  CB        53.9120   31.4810   39.1190 C.3   106  SER106      0.2103
     68  OG        53.6800   30.1650   39.5480 O.3   106  SER106     -0.2182
     69  N         52.4520   34.1730   40.0920 N.am  107  PRO107     -0.2717
     70  CA        52.5610   35.6080   40.3830 C.3   107  PRO107      0.1535
     71  C         53.9840   36.1500   40.2490 C.2   107  PRO107      0.2598
     72  O         54.1680   37.2830   39.8070 O.2   107  PRO107     -0.2715
     73  CB        52.1170   35.7070   41.8480 C.3   107  PRO107      0.0310
     74  CG        51.3880   34.4490   42.1280 C.3   107  PRO107      0.0237
     75  CD        52.0060   33.4040   41.2680 C.3   107  PRO107      0.0939
     76  N         54.9780   35.3480   40.6260 N.am  108  GLU108     -0.1978
     77  CA        56.3730   35.7970   40.6270 C.3   108  GLU108      0.1602
     78  C         56.9560   35.8250   39.2280 C.2   108  GLU108      0.2287
     79  O         57.9070   36.5570   38.9730 O.2   108  GLU108     -0.2864
     80  CB        57.2500   34.9120   41.5210 C.3   108  GLU108      0.0415
     81  CG        56.7400   34.7300   42.9410 C.3   108  GLU108      0.1163
     82  CD        55.8510   33.5090   43.1040 C.2   108  GLU108      0.3649
     83  OE1       55.4710   32.8980   42.0730 O.co2 108  GLU108     -0.2457
     84  OE2       55.5350   33.1600   44.2710 O.co2 108  GLU108     -0.2457
     85  N         60.9070   32.5970   36.4950 N.3   130  TYR130     -0.1241
     86  CA        61.3530   33.2480   37.7000 C.3   130  TYR130      0.1605
     87  C         62.7620   32.7440   37.9240 C.2   130  TYR130      0.2264
     88  O         62.9760   31.5340   38.1230 O.2   130  TYR130     -0.2867
     89  CB        60.4400   32.8380   38.8470 C.3   130  TYR130      0.0534
     90  CG        60.8130   33.3490   40.2140 C.ar  130  TYR130     -0.0201
     91  CD1       60.7430   32.5000   41.3180 C.ar  130  TYR130     -0.0009
     92  CD2       61.2010   34.6750   40.4150 C.ar  130  TYR130     -0.0009
     93  CE1       61.0560   32.9450   42.5910 C.ar  130  TYR130      0.0417
     94  CE2       61.5230   35.1370   41.6870 C.ar  130  TYR130      0.0417
     95  CZ        61.4440   34.2580   42.7740 C.ar  130  TYR130      0.1957
     96  OH        61.7500   34.6830   44.0460 O.3   130  TYR130     -0.2866
@<TRIPOS>BOND
     1    30    29    2
     2    29    28    1
     3    85    86    1
     4    33    31    1
     5    34    35    1
     6    28    31    1
     7    28    27    1
     8    63    64    1
     9    86    87    1
    10    86    89    1
    11    87    88    2
    12    31    32    1
    13    66    65    2
    14    27    18   am
    15    35    36    1
    16    35    38    1
    17    64    65    1
    18    64    67    1
    19    89    90    1
    20    39    38    1
    21    65    69   am
    22    79    78    2
    23    67    68    1
    24    78    77    1
    25    18    19    2
    26    18    17    1
    27    25    24    1
    28    22    21    1
    29    22    23    1
    30    37    36    2
    31    21    20    1
    32    38    40    1
    33    20    17    1
    34    72    71    2
    35    69    70    1
    36    69    75    1
    37    17    16    1
    38    90    92   ar
    39    90    91   ar
    40    71    70    1
    41    71    76   am
    42    24    23    2
    43    24    26    1
    44    70    73    1
    45    92    94   ar
    46    76    77    1
    47    77    80    1
    48    75    74    1
    49    91    93   ar
    50    80    81    1
    51    16    10   am
    52    94    95   ar
    53    73    74    1
    54    83    82   ar
    55    11    10    2
    56    93    95   ar
    57    10     9    1
    58    95    96    1
    59    81    82    1
    60    82    84   ar
    61     4     3    2
    62    41    42    1
    63     6     5    1
    64     9    12    1
    65     9     8    1
    66    46    45    1
    67     3     8   am
    68     3     2    1
    69    12    13    1
    70    42    45    1
    71    42    43    1
    72     1     2    1
    73     5     2    1
    74     5     7    1
    75    45    47    1
    76    44    43    2
    77    13    14    2
    78    13    15   am
    79    43    48   am
    80    48    49    1
    81    54    52    1
    82    52    49    1
    83    52    53    1
    84    49    50    1
    85    50    51    2
    86    58    57    2
    87    55    56    1
    88    61    60    1
    89    57    56    1
    90    56    59    1
    91    59    60    1
    92    60    62    1
