@<TRIPOS>MOLECULE
tmp/1ywnA00.pdb
 190 176 0 0 0
SMALL
GASTEIGER

@<TRIPOS>ATOM
      1  N         -4.5500   25.8240   14.7190 N.3    21  LEU21      -0.1231
      2  CA        -3.8040   26.3510   15.8680 C.3    21  LEU21       0.1693
      3  C         -4.6380   27.3440   16.6600 C.2    21  LEU21       0.2593
      4  O         -4.1860   27.8700   17.6840 O.2    21  LEU21      -0.2718
      5  CB        -2.5260   27.0590   15.4220 C.3    21  LEU21       0.0284
      6  CG        -1.3450   26.2020   14.9830 C.3    21  LEU21       0.0019
      7  CD1       -0.2420   27.0770   14.4200 C.3    21  LEU21       0.0001
      8  CD2       -0.8160   25.3480   16.1420 C.3    21  LEU21       0.0001
      9  N         -5.8490   27.6020   16.1830 N.am   22  GLY22      -0.1942
     10  CA        -6.7400   28.5020   16.8660 C.3    22  GLY22       0.2014
     11  C         -7.5290   29.3470   15.9040 C.2    22  GLY22       0.2639
     12  O         -7.0490   29.7630   14.8560 O.2    22  GLY22      -0.2714
     13  N         -8.7730   29.5760   16.2710 N.am   23  ARG23      -0.1963
     14  CA        -9.5990   30.5500   15.6100 C.3    23  ARG23       0.1729
     15  C         -9.9370   31.5520   16.6970 C.2    23  ARG23       0.2616
     16  O        -10.2340   31.1670   17.8340 O.2    23  ARG23      -0.2715
     17  CB       -10.8450   29.9030   14.9930 C.3    23  ARG23       0.0348
     18  CG       -11.5970   28.9090   15.8890 C.3    23  ARG23       0.0492
     19  CD       -12.4610   27.9520   15.0780 C.3    23  ARG23       0.2205
     20  NE       -13.2570   28.6380   14.0550 N.pl3  23  ARG23      -0.0865
     21  CZ       -14.1540   28.0440   13.2710 C.cat  23  ARG23       0.5346
     22  NH1      -14.4090   26.7400   13.3880 N.pl3  23  ARG23       0.1354
     23  NH2      -14.8170   28.7660   12.3700 N.pl3  23  ARG23       0.1354
     24  N         -9.7960   32.8290   16.3720 N.am   24  GLY24      -0.1955
     25  CA       -10.2270   33.9040   17.2490 C.3    24  GLY24       0.1869
     26  C        -11.4510   34.5270   16.6140 C.2    24  GLY24       0.2309
     27  O        -12.0010   33.9800   15.6510 O.2    24  GLY24      -0.2863
     28  N         -9.8600   35.8330   12.0740 N.3    27  GLY27      -0.1225
     29  CA        -8.6810   35.1380   11.5410 C.3    27  GLY27       0.1811
     30  C         -8.4070   33.7980   12.2170 C.2    27  GLY27       0.2280
     31  O         -8.2890   33.7460   13.4460 O.2    27  GLY27      -0.2866
     32  N         -5.7670   30.4610   12.4790 N.3    29  VAL29      -0.1245
     33  CA        -4.3820   30.1180   12.2650 C.3    29  VAL29       0.1561
     34  C         -4.2900   28.6090   12.1700 C.2    29  VAL29       0.2260
     35  O         -5.0120   27.8850   12.8830 O.2    29  VAL29      -0.2867
     36  CB        -3.4860   30.6590   13.3950 C.3    29  VAL29       0.0252
     37  CG1       -2.0420   30.3720   13.1120 C.3    29  VAL29       0.0019
     38  CG2       -3.7090   32.1680   13.5550 C.3    29  VAL29       0.0019
     39  N          3.3960   28.7030   10.6710 N.3    47  ALA47      -0.1245
     40  CA         2.0490   29.0420   11.1410 C.3    47  ALA47       0.1562
     41  C          1.4340   29.9520   10.0980 C.2    47  ALA47       0.2260
     42  O          2.0760   30.8780    9.6470 O.2    47  ALA47      -0.2867
     43  CB         2.0830   29.7290   12.4720 C.3    47  ALA47       0.0290
     44  N         -1.8170   32.3810    9.1370 N.3    49  LYS49      -0.1245
     45  CA        -3.0270   33.0960    9.4790 C.3    49  LYS49       0.1561
     46  C         -3.8290   33.3400    8.2130 C.2    49  LYS49       0.2260
     47  O         -3.3490   33.9290    7.2520 O.2    49  LYS49      -0.2867
     48  CB        -2.6770   34.3920   10.2000 C.3    49  LYS49       0.0271
     49  CG        -3.8270   35.0410   10.8990 C.3    49  LYS49       0.0035
     50  CD        -3.3370   35.9210   12.0710 C.3    49  LYS49       0.0206
     51  CE        -4.4110   36.8240   12.5990 C.3    49  LYS49       0.1093
     52  NZ        -3.8020   37.6990   13.6460 N.3    49  LYS49      -0.1314
     53  N         -1.9000   43.5750    9.1130 N.3    62  GLU62      -0.1245
     54  CA        -0.8940   42.7710    9.8340 C.3    62  GLU62       0.1567
     55  C          0.3060   42.4070    8.9620 C.2    62  GLU62       0.2260
     56  O          1.4930   42.5080    9.3610 O.2    62  GLU62      -0.2867
     57  CB        -1.5670   41.5140   10.3770 C.3    62  GLU62       0.0388
     58  CG        -0.5570   40.5200   11.0040 C.3    62  GLU62       0.1160
     59  CD        -1.2000   39.5460   11.9880 C.2    62  GLU62       0.3649
     60  OE1       -2.4760   39.4600   12.0440 O.co2  62  GLU62      -0.2457
     61  OE2       -0.4220   38.8660   12.7030 O.co2  62  GLU62      -0.2457
     62  N          2.4240   45.6040    8.4350 N.3    65  ILE65      -0.1231
     63  CA         3.1350   45.9070    9.6990 C.3    65  ILE65       0.1692
     64  C          4.3190   44.9730    9.8830 C.2    65  ILE65       0.2591
     65  O          5.4170   45.4030   10.2060 O.2    65  ILE65      -0.2718
     66  CB         2.1880   45.8000   10.9120 C.3    65  ILE65       0.0266
     67  CG1        1.2340   46.9900   10.9310 C.3    65  ILE65       0.0019
     68  CG2        2.9670   45.7210   12.2340 C.3    65  ILE65       0.0020
     69  CD1        0.0300   46.7880   11.7880 C.3    65  ILE65       0.0001
     70  N          4.1160   43.6860    9.6500 N.am   66  LEU66      -0.1980
     71  CA         5.2310   42.7400    9.7410 C.3    66  LEU66       0.1596
     72  C          6.3390   43.0340    8.7400 C.2    66  LEU66       0.2287
     73  O          7.5350   42.8980    9.0350 O.2    66  LEU66      -0.2864
     74  CB         4.7070   41.3110    9.5700 C.3    66  LEU66       0.0297
     75  CG         3.9620   40.7440   10.7860 C.3    66  LEU66       0.0022
     76  CD1        3.3000   39.4920   10.3730 C.3    66  LEU66       0.0001
     77  CD2        4.9100   40.4880   11.9640 C.3    66  LEU66       0.0001
     78  N          8.1760   46.0850   10.2330 N.3    69  ILE69      -0.1245
     79  CA         8.9960   45.7560   11.4010 C.3    69  ILE69       0.1561
     80  C         10.3130   45.1680   10.9150 C.2    69  ILE69       0.2260
     81  O         11.4000   45.6480   11.2820 O.2    69  ILE69      -0.2867
     82  CB         8.2680   44.8110   12.3680 C.3    69  ILE69       0.0252
     83  CG1        7.1640   45.5730   13.1050 C.3    69  ILE69       0.0019
     84  CG2        9.2390   44.1950   13.3840 C.3    69  ILE69       0.0019
     85  CD1        6.1010   44.6750   13.7670 C.3    69  ILE69       0.0001
     86  N         11.5120   38.6050   17.5540 N.3    75  VAL75      -0.1231
     87  CA        10.1680   38.9690   17.1000 C.3    75  VAL75       0.1692
     88  C          9.7010   37.8630   16.1590 C.2    75  VAL75       0.2591
     89  O         10.5020   37.2930   15.4070 O.2    75  VAL75      -0.2718
     90  CB        10.2160   40.3510   16.4000 C.3    75  VAL75       0.0266
     91  CG1        8.9100   40.7250   15.7990 C.3    75  VAL75       0.0020
     92  CG2       10.6240   41.4280   17.4010 C.3    75  VAL75       0.0020
     93  N          8.4340   37.5100   16.2270 N.am   76  VAL76      -0.1980
     94  CA         7.9170   36.4990   15.3080 C.3    76  VAL76       0.1595
     95  C          8.1770   37.0060   13.8990 C.2    76  VAL76       0.2287
     96  O          7.8560   38.1400   13.5740 O.2    76  VAL76      -0.2864
     97  CB         6.4240   36.2380   15.5300 C.3    76  VAL76       0.0276
     98  CG1        5.5990   37.4460   15.1810 C.3    76  VAL76       0.0022
     99  CG2        5.9860   35.0430   14.6990 C.3    76  VAL76       0.0022
    100  N          4.0430   32.9730    9.0170 N.3    93  VAL93      -0.1231
    101  CA         5.0630   33.3630    9.9820 C.3    93  VAL93       0.1692
    102  C          5.7630   32.1310   10.5690 C.2    93  VAL93       0.2592
    103  O          5.3070   31.0090   10.4310 O.2    93  VAL93      -0.2718
    104  CB         4.4730   34.2320   11.1270 C.3    93  VAL93       0.0266
    105  CG1        3.7700   35.4560   10.5740 C.3    93  VAL93       0.0020
    106  CG2        3.5150   33.4300   11.9900 C.3    93  VAL93       0.0020
    107  N          6.8930   32.3680   11.2250 N.am   94  GLU94      -0.1966
    108  CA         7.6310   31.3160   11.8900 C.3    94  GLU94       0.1733
    109  C          6.7560   30.5680   12.8880 C.2    94  GLU94       0.2616
    110  O          6.0510   31.1840   13.6630 O.2    94  GLU94      -0.2715
    111  CB         8.7870   31.9380   12.7030 C.3    94  GLU94       0.0429
    112  CG         9.6690   32.8650   11.8810 C.3    94  GLU94       0.1163
    113  CD        10.7810   33.4660   12.6870 C.2    94  GLU94       0.3649
    114  OE1       10.5220   33.9610   13.8460 O.co2  94  GLU94      -0.2457
    115  OE2       11.9270   33.4190   12.1510 O.co2  94  GLU94      -0.2457
    116  N          6.9120   29.2550   12.9240 N.am   95  PHE95      -0.1960
    117  CA         6.2090   28.4130   13.8720 C.3    95  PHE95       0.1771
    118  C          7.0280   28.3250   15.1580 C.2    95  PHE95       0.2619
    119  O          8.2360   28.0480   15.1080 O.2    95  PHE95      -0.2715
    120  CB         6.0290   27.0150   13.2810 C.3    95  PHE95       0.0574
    121  CG         5.3210   26.0450   14.1910 C.ar   95  PHE95      -0.0200
    122  CD1        3.9990   26.2360   14.5230 C.ar   95  PHE95      -0.0042
    123  CD2        5.9720   24.9190   14.6830 C.ar   95  PHE95      -0.0042
    124  CE1        3.3270   25.3320   15.3370 C.ar   95  PHE95      -0.0003
    125  CE2        5.3180   24.0270   15.5070 C.ar   95  PHE95      -0.0003
    126  CZ         4.0060   24.2260   15.8340 C.ar   95  PHE95      -0.0000
    127  N          6.3670   28.5350   16.2940 N.am   96  CYS96      -0.1968
    128  CA         6.9910   28.4250   17.6270 C.3    96  CYS96       0.1712
    129  C          6.3940   27.2350   18.3330 C.2    96  CYS96       0.2296
    130  O          5.2590   27.2870   18.7890 O.2    96  CYS96      -0.2864
    131  CB         6.7420   29.6940   18.4250 C.3    96  CYS96       0.0983
    132  SG         7.4570   31.1570   17.6140 S.3    96  CYS96      -0.0798
    133  N          4.8280   26.9220   22.3750 N.3    99  GLY99      -0.1225
    134  CA         3.6990   27.7100   22.8480 C.3    99  GLY99       0.1811
    135  C          4.1150   28.9410   23.6400 C.2    99  GLY99       0.2280
    136  O          5.2600   29.3850   23.5580 O.2    99  GLY99      -0.2866
    137  N         11.7930   46.6280   18.3870 N.3   135  LEU135     -0.1245
    138  CA        10.5070   47.2010   18.0370 C.3   135  LEU135      0.1561
    139  C         10.5040   48.7200   18.2470 C.2   135  LEU135      0.2260
    140  O          9.9590   49.4440   17.4440 O.2   135  LEU135     -0.2867
    141  CB         9.3710   46.5440   18.8400 C.3   135  LEU135      0.0270
    142  CG         9.0280   45.1120   18.4290 C.3   135  LEU135      0.0019
    143  CD1        7.9330   44.5520   19.3060 C.3   135  LEU135      0.0001
    144  CD2        8.6740   44.9680   16.9210 C.3   135  LEU135      0.0001
    145  N          7.6410   51.2770   16.8570 N.3   140  CYS140     -0.1235
    146  CA         6.4580   50.4980   17.1940 C.3   140  CYS140      0.1677
    147  C          6.2720   50.5380   18.6920 C.2   140  CYS140      0.2270
    148  O          7.2400   50.7000   19.4220 O.2   140  CYS140     -0.2867
    149  CB         6.6180   49.0390   16.7620 C.3   140  CYS140      0.0956
    150  SG         6.8790   48.8140   15.0250 S.3   140  CYS140     -0.0801
    151  N          4.0820   48.1000   21.4860 N.3   142  HIS142     -0.1241
    152  CA         3.4090   46.8100   21.5330 C.3   142  HIS142      0.1621
    153  C          2.0060   46.9350   22.0920 C.2   142  HIS142      0.2264
    154  O          1.0410   46.4290   21.4860 O.2   142  HIS142     -0.2867
    155  CB         4.2010   45.7940   22.3350 C.3   142  HIS142      0.0745
    156  CG         3.6580   44.4160   22.2130 C.ar  142  HIS142      0.0817
    157  ND1        2.5240   44.0070   22.8860 N.ar  142  HIS142     -0.2268
    158  CD2        4.0540   43.3650   21.4640 C.ar  142  HIS142      0.1154
    159  CE1        2.2540   42.7570   22.5580 C.ar  142  HIS142      0.1986
    160  NE2        3.1670   42.3450   21.6970 N.ar  142  HIS142     -0.2212
    161  N          6.2250   33.7680   22.5530 N.3   151  LEU151     -0.1245
    162  CA         6.2140   32.3490   22.2160 C.3   151  LEU151      0.1561
    163  C          7.6230   31.7600   22.2910 C.2   151  LEU151      0.2260
    164  O          8.6140   32.4320   22.0750 O.2   151  LEU151     -0.2867
    165  CB         5.6240   32.1120   20.8240 C.3   151  LEU151      0.0270
    166  CG         4.2030   32.6390   20.5720 C.3   151  LEU151      0.0019
    167  CD1        3.7380   32.1570   19.2330 C.3   151  LEU151      0.0001
    168  CD2        3.2430   32.2280   21.6930 C.3   151  LEU151      0.0001
    169  N          8.5780   37.6880   20.5220 N.3   160  ILE160     -0.1231
    170  CA         7.4570   38.5670   20.7640 C.3   160  ILE160      0.1692
    171  C          6.4200   38.4460   19.6470 C.2   160  ILE160      0.2592
    172  O          6.7480   38.5070   18.4610 O.2   160  ILE160     -0.2718
    173  CB         7.9340   40.0190   20.8650 C.3   160  ILE160      0.0266
    174  CG1        8.8850   40.1970   22.0760 C.3   160  ILE160      0.0019
    175  CG2        6.7480   40.9910   20.9840 C.3   160  ILE160      0.0020
    176  CD1        9.6800   41.4850   21.9890 C.3   160  ILE160      0.0001
    177  N          5.1470   38.2890   20.0270 N.am  161  CYS161     -0.1956
    178  CA         4.0580   38.2830   19.0610 C.3   161  CYS161      0.1843
    179  C          2.9710   39.2630   19.4890 C.2   161  CYS161      0.2625
    180  O          3.0290   39.8300   20.5980 O.2   161  CYS161     -0.2714
    181  CB         3.4660   36.9010   18.9180 C.3   161  CYS161      0.0997
    182  SG         2.7570   36.1690   20.3710 S.3   161  CYS161     -0.0797
    183  N          2.0140   39.4610   18.6030 N.am  162  ASP162     -0.1971
    184  CA         0.8180   40.2600   18.9060 C.3   162  ASP162      0.1709
    185  C         -0.3930   39.6320   18.2080 C.2   162  ASP162      0.2293
    186  O         -0.2960   39.1150   17.1010 O.2   162  ASP162     -0.2864
    187  CB         1.0310   41.7240   18.4750 C.3   162  ASP162      0.1436
    188  CG        -0.1370   42.6430   18.8800 C.2   162  ASP162      0.3671
    189  OD1       -0.7260   42.4370   19.9550 O.co2 162  ASP162     -0.2456
    190  OD2       -0.4560   43.5580   18.1020 O.co2 162  ASP162     -0.2456
@<TRIPOS>BOND
     1    47    46    2
     2    46    45    1
     3    62    63    1
     4    72    73    2
     5    72    71    1
     6    55    56    2
     7    55    54    1
     8   100   101    1
     9    53    54    1
    10    44    45    1
    11    45    48    1
    12    74    71    1
    13    74    75    1
    14    42    41    2
    15    70    71    1
    16    70    64   am
    17    63    64    1
    18    63    66    1
    19    54    57    1
    20    64    65    2
    21   101   102    1
    22   101   104    1
    23    41    40    1
    24    48    49    1
    25    78    79    1
    26    76    75    1
    27    57    58    1
    28   103   102    2
    29   102   107   am
    30   105   104    1
    31    39    40    1
    32    75    77    1
    33    49    50    1
    34    66    67    1
    35    66    68    1
    36    80    81    2
    37    80    79    1
    38    67    69    1
    39    58    59    1
    40   104   106    1
    41    40    43    1
    42   107   108    1
    43    79    82    1
    44    29    28    1
    45    29    30    1
    46   112   113    1
    47   112   111    1
    48   108   111    1
    49   108   109    1
    50    59    60   ar
    51    59    61   ar
    52    50    51    1
    53   115   113   ar
    54    34    33    1
    55    34    35    2
    56    30    31    2
    57    33    32    1
    58    33    36    1
    59    82    83    1
    60    82    84    1
    61    23    21    1
    62    51    52    1
    63   113   114   ar
    64   109   116   am
    65   109   110    2
    66   116   117    1
    67    83    85    1
    68    37    36    1
    69    21    22    1
    70    21    20    2
    71   120   117    1
    72   120   121    1
    73    36    38    1
    74    96    95    2
    75   117   118    1
    76    95    94    1
    77    20    19    1
    78   121   122   ar
    79   121   123   ar
    80     7     6    1
    81   122   124   ar
    82   123   125   ar
    83    99    97    1
    84     1     2    1
    85    12    11    2
    86     6     5    1
    87     6     8    1
    88    17    14    1
    89    17    18    1
    90   150   149    1
    91    19    18    1
    92   119   118    2
    93   118   127   am
    94    98    97    1
    95    94    97    1
    96    94    93    1
    97   124   126   ar
    98    89    88    2
    99     5     2    1
   100   125   126   ar
   101    14    13    1
   102    14    15    1
   103    27    26    2
   104    91    90    1
   105     2     3    1
   106    11    13   am
   107    11    10    1
   108    88    93   am
   109    88    87    1
   110     9     3   am
   111     9    10    1
   112   127   128    1
   113    24    15   am
   114    24    25    1
   115    90    87    1
   116    90    92    1
   117    26    25    1
   118     3     4    2
   119    15    16    2
   120   149   146    1
   121   145   146    1
   122   144   142    1
   123    87    86    1
   124   186   185    2
   125   146   147    1
   126   140   139    2
   127   132   131    1
   128   128   129    1
   129   128   131    1
   130   138   139    1
   131   138   137    1
   132   138   141    1
   133   190   188   ar
   134   185   184    1
   135   129   130    2
   136   142   141    1
   137   142   143    1
   138   172   171    2
   139   187   188    1
   140   187   184    1
   141   183   184    1
   142   183   179   am
   143   147   148    2
   144   188   189   ar
   145   181   178    1
   146   181   182    1
   147   178   179    1
   148   178   177    1
   149   167   166    1
   150   179   180    2
   151   171   177   am
   152   171   170    1
   153   169   170    1
   154   166   165    1
   155   166   168    1
   156   170   173    1
   157   165   162    1
   158   173   175    1
   159   173   174    1
   160   158   160   ar
   161   158   156   ar
   162   151   152    1
   163   154   153    2
   164   152   153    1
   165   152   155    1
   166   160   159   ar
   167   176   174    1
   168   164   163    2
   169   156   155    1
   170   156   157   ar
   171   162   163    1
   172   162   161    1
   173   133   134    1
   174   159   157   ar
   175   134   135    1
   176   136   135    2
