@<TRIPOS>MOLECULE
tmp/1ywoA00.pdb
 131 132 0 0 0
SMALL
GASTEIGER

@<TRIPOS>ATOM
      1  N         24.2900   15.3660   26.0910 N.3     7  PHE7       -0.1227
      2  CA        25.3500   14.4170   26.4680 C.3     7  PHE7        0.1736
      3  C         25.9720   13.8550   25.2000 C.2     7  PHE7        0.2595
      4  O         25.3350   13.8650   24.1530 O.2     7  PHE7       -0.2718
      5  CB        24.7890   13.2260   27.2510 C.3     7  PHE7        0.0547
      6  CG        24.1320   13.5940   28.5520 C.ar    7  PHE7       -0.0202
      7  CD1       24.8310   13.4760   29.7430 C.ar    7  PHE7       -0.0042
      8  CD2       22.8110   14.0460   28.5790 C.ar    7  PHE7       -0.0042
      9  CE1       24.2380   13.8170   30.9610 C.ar    7  PHE7       -0.0003
     10  CE2       22.2030   14.4010   29.7890 C.ar    7  PHE7       -0.0003
     11  CZ        22.9130   14.2700   30.9790 C.ar    7  PHE7       -0.0000
     12  N         27.2130   13.3690   25.2930 N.am    8  ASP8       -0.1960
     13  CA        27.8420   12.6270   24.1750 C.3     8  ASP8        0.1840
     14  C         27.0500   11.3350   23.9290 C.2     8  ASP8        0.2622
     15  O         26.6570   10.6480   24.8820 O.2     8  ASP8       -0.2715
     16  CB        29.2690   12.1660   24.5230 C.3     8  ASP8        0.1450
     17  CG        30.2990   13.2780   24.5710 C.2     8  ASP8        0.3671
     18  OD1       29.9830   14.4900   24.5340 O.co2   8  ASP8       -0.2456
     19  OD2       31.4880   12.9060   24.6740 O.co2   8  ASP8       -0.2456
     20  N         26.8390   10.9780   22.6670 N.am    9  TYR9       -0.1974
     21  CA        26.2540    9.7030   22.3440 C.3     9  TYR9        0.1639
     22  C         27.1390    9.0140   21.3240 C.2     9  TYR9        0.2290
     23  O         27.5400    9.6310   20.3270 O.2     9  TYR9       -0.2864
     24  CB        24.7930    9.8180   21.8150 C.3     9  TYR9        0.0560
     25  CG        24.2730    8.4370   21.5030 C.ar    9  TYR9       -0.0198
     26  CD1       23.8660    7.5940   22.5410 C.ar    9  TYR9       -0.0009
     27  CD2       24.3110    7.9180   20.1940 C.ar    9  TYR9       -0.0009
     28  CE1       23.4610    6.2920   22.2940 C.ar    9  TYR9        0.0417
     29  CE2       23.8740    6.6150   19.9310 C.ar    9  TYR9        0.0417
     30  CZ        23.4650    5.8110   20.9970 C.ar    9  TYR9        0.1957
     31  OH        23.0750    4.5090   20.8180 O.3     9  TYR9       -0.2866
     32  N         26.0150    2.6200   18.7270 N.3    12  GLN12      -0.1231
     33  CA        26.2640    1.2190   19.0730 C.3    12  GLN12       0.1698
     34  C         25.9110    0.2520   17.9350 C.2    12  GLN12       0.2592
     35  O         26.3170   -0.9210   17.9210 O.2    12  GLN12      -0.2718
     36  CB        25.5890    0.8420   20.4130 C.3    12  GLN12       0.0381
     37  CG        25.4900    1.9510   21.5630 C.3    12  GLN12       0.0905
     38  CD        24.3520    1.7370   22.6050 C.2    12  GLN12       0.2608
     39  OE1       23.3840    2.5010   22.6680 O.2    12  GLN12      -0.2717
     40  NE2       24.4820    0.7060   23.4230 N.am   12  GLN12      -0.0878
     41  N         25.1590    0.7600   16.9750 N.am   13  ARG13      -0.1980
     42  CA        24.7700   -0.0150   15.8200 C.3    13  ARG13       0.1597
     43  C         25.0020    0.8520   14.6080 C.2    13  ARG13       0.2287
     44  O         25.0650    2.0830   14.7020 O.2    13  ARG13      -0.2864
     45  CB        23.2890   -0.4190   15.8760 C.3    13  ARG13       0.0334
     46  CG        22.9300   -1.4790   16.9120 C.3    13  ARG13       0.0492
     47  CD        22.1040   -0.8460   17.9920 C.3    13  ARG13       0.2205
     48  NE        22.2730   -1.4780   19.2940 N.pl3  13  ARG13      -0.0865
     49  CZ        22.0950   -0.8480   20.4510 C.cat  13  ARG13       0.5346
     50  NH1       22.2760   -1.5270   21.5700 N.pl3  13  ARG13       0.1354
     51  NH2       21.7580    0.4580   20.5000 N.pl3  13  ARG13       0.1354
     52  N         23.1590    1.8350   12.2750 N.3    15  ASP15      -0.1225
     53  CA        22.1160    2.8140   11.9290 C.3    15  ASP15       0.1805
     54  C         21.8780    3.9570   12.9440 C.2    15  ASP15       0.2597
     55  O         20.7900    4.5220   12.9940 O.2    15  ASP15      -0.2718
     56  CB        20.7990    2.0830   11.6500 C.3    15  ASP15       0.1424
     57  CG        20.2510    1.3910   12.8850 C.2    15  ASP15       0.3668
     58  OD1       20.9640    1.3590   13.9060 O.co2  15  ASP15      -0.2456
     59  OD2       19.1020    0.9010   12.8400 O.co2  15  ASP15      -0.2456
     60  N         22.9040    4.3200   13.7100 N.am   16  GLU16      -0.1979
     61  CA        22.7950    5.3320   14.7450 C.3    16  GLU16       0.1602
     62  C         23.7870    6.4680   14.5170 C.2    16  GLU16       0.2287
     63  O         24.8730    6.2540   13.9690 O.2    16  GLU16      -0.2864
     64  CB        23.0730    4.7230   16.1230 C.3    16  GLU16       0.0415
     65  CG        22.0430    3.7040   16.5500 C.3    16  GLU16       0.1163
     66  CD        22.3320    3.0980   17.9090 C.2    16  GLU16       0.3649
     67  OE1       23.3310    3.4940   18.5780 O.co2  16  GLU16      -0.2457
     68  OE2       21.5300    2.2190   18.3020 O.co2  16  GLU16      -0.2457
     69  N          8.7720    5.6560   20.5970 N.3    33  GLY33      -0.1210
     70  CA         9.6720    4.5850   20.9750 C.3    33  GLY33       0.1956
     71  C         10.9430    5.0320   21.6450 C.2    33  GLY33       0.2612
     72  O         11.7770    4.1980   22.0100 O.2    33  GLY33      -0.2717
     73  N         11.0970    6.3430   21.7850 N.am   34  GLY34      -0.1942
     74  CA        12.2120    6.9230   22.4980 C.3    34  GLY34       0.2014
     75  C         13.4330    7.1930   21.6510 C.2    34  GLY34       0.2638
     76  O         14.4410    7.6370   22.1810 O.2    34  GLY34      -0.2714
     77  N         13.3650    6.8960   20.3480 N.am   35  TRP35      -0.1973
     78  CA        14.4740    7.1700   19.4640 C.3    35  TRP35       0.1640
     79  C         13.9030    7.9470   18.2760 C.2    35  TRP35       0.2290
     80  O         12.7770    7.6740   17.8260 O.2    35  TRP35      -0.2864
     81  CB        15.1520    5.8840   18.9810 C.3    35  TRP35       0.0576
     82  CG        15.8850    5.0900   20.0170 C.ar   35  TRP35       0.0006
     83  CD1       15.3420    4.3550   21.0170 C.ar   35  TRP35       0.0946
     84  CD2       17.2980    4.8890   20.0910 C.ar   35  TRP35       0.0152
     85  NE1       16.3310    3.7330   21.7440 N.ar   35  TRP35      -0.2442
     86  CE2       17.5440    4.0330   21.1840 C.ar   35  TRP35       0.0810
     87  CE3       18.3880    5.3490   19.3320 C.ar   35  TRP35       0.0012
     88  CZ2       18.8440    3.6330   21.5570 C.ar   35  TRP35       0.0191
     89  CZ3       19.6910    4.9430   19.6960 C.ar   35  TRP35       0.0001
     90  CH2       19.9000    4.1070   20.7980 C.ar   35  TRP35       0.0015
     91  N         19.3430    6.9040   13.7480 N.3    47  TRP47      -0.1241
     92  CA        18.7130    6.9220   15.0560 C.3    47  TRP47       0.1605
     93  C         19.5780    7.5570   16.1470 C.2    47  TRP47       0.2264
     94  O         20.8060    7.4570   16.1400 O.2    47  TRP47      -0.2867
     95  CB        18.3500    5.5020   15.5370 C.3    47  TRP47       0.0550
     96  CG        17.3140    4.7730   14.7300 C.ar   47  TRP47       0.0003
     97  CD1       17.5250    3.6610   13.9710 C.ar   47  TRP47       0.0946
     98  CD2       15.9080    5.0630   14.6370 C.ar   47  TRP47       0.0152
     99  NE1       16.3440    3.2210   13.4260 N.ar   47  TRP47      -0.2442
    100  CE2       15.3350    4.0740   13.7950 C.ar   47  TRP47       0.0810
    101  CE3       15.0700    6.0510   15.1940 C.ar   47  TRP47       0.0012
    102  CZ2       13.9550    4.0570   13.4690 C.ar   47  TRP47       0.0191
    103  CZ3       13.7080    6.0290   14.8830 C.ar   47  TRP47       0.0001
    104  CH2       13.1610    5.0390   14.0200 C.ar   47  TRP47       0.0015
    105  N         18.9280    8.4240   20.7120 N.3    49  PRO49      -0.2116
    106  CA        17.9690    8.4250   21.8180 C.3    49  PRO49       0.1372
    107  C         17.4140    9.8020   22.1500 C.2    49  PRO49       0.2244
    108  O         18.1750   10.7520   22.3160 O.2    49  PRO49      -0.2868
    109  CB        18.7600    7.8370   23.0030 C.3    49  PRO49       0.0268
    110  CG        20.2010    8.0090   22.6450 C.3    49  PRO49       0.0207
    111  CD        20.3160    8.1310   21.1500 C.3    49  PRO49       0.0892
    112  N         16.0700   11.0410   24.7580 N.3    51  ASN51      -0.1225
    113  CA        16.4670   11.5580   26.0690 C.3    51  ASN51       0.1785
    114  C         17.8700   12.1480   26.1170 C.2    51  ASN51       0.2597
    115  O         18.2850   12.6950   27.1480 O.2    51  ASN51      -0.2718
    116  CB        16.2170   10.5390   27.2040 C.3    51  ASN51       0.1169
    117  CG        16.9550    9.2170   27.0190 C.2    51  ASN51       0.2627
    118  OD1       17.6690    9.0030   26.0490 O.2    51  ASN51      -0.2716
    119  ND2       16.7500    8.3070   27.9740 N.am   51  ASN51      -0.0877
    120  N         18.5810   12.0930   24.9850 N.am   52  TYR52      -0.1976
    121  CA        19.8990   12.7460   24.8530 C.3    52  TYR52       0.1639
    122  C         19.8890   14.2050   24.3690 C.2    52  TYR52       0.2290
    123  O         20.9400   14.8650   24.3220 O.2    52  TYR52      -0.2864
    124  CB        20.8600   11.8830   24.0050 C.3    52  TYR52       0.0560
    125  CG        21.5820   10.8570   24.8400 C.ar   52  TYR52      -0.0198
    126  CD1       20.8660    9.8680   25.5170 C.ar   52  TYR52      -0.0009
    127  CD2       22.9860   10.8700   24.9590 C.ar   52  TYR52      -0.0009
    128  CE1       21.5050    8.9240   26.3260 C.ar   52  TYR52       0.0417
    129  CE2       23.6510    9.9100   25.7970 C.ar   52  TYR52       0.0417
    130  CZ        22.8950    8.9570   26.4640 C.ar   52  TYR52       0.1957
    131  OH        23.4780    8.0180   27.2920 O.3    52  TYR52      -0.2866
@<TRIPOS>BOND
     1    56    53    1
     2    56    57    1
     3    53    52    1
     4    53    54    1
     5    59    57   ar
     6    57    58   ar
     7    54    55    2
     8    54    60   am
     9    99   100   ar
    10    99    97   ar
    11   102   100   ar
    12   102   104   ar
    13    60    61    1
    14    91    92    1
    15   100    98   ar
    16    63    62    2
    17    97    96   ar
    18   104   103   ar
    19    62    61    1
    20    43    44    2
    21    43    42    1
    22    98    96   ar
    23    98   101   ar
    24    96    95    1
    25    61    64    1
    26   103   101   ar
    27    92    95    1
    28    92    93    1
    29    42    45    1
    30    42    41    1
    31    45    46    1
    32    64    65    1
    33    94    93    2
    34    65    66    1
    35    46    47    1
    36    41    34   am
    37    80    79    2
    38    66    68   ar
    39    66    67   ar
    40    35    34    2
    41    34    33    1
    42    47    48    1
    43    79    78    1
    44    32    33    1
    45    81    78    1
    46    81    82    1
    47    33    36    1
    48    48    49    2
    49    87    89   ar
    50    87    84   ar
    51    78    77    1
    52    89    90   ar
    53    29    27   ar
    54    29    30   ar
    55    82    84   ar
    56    82    83   ar
    57    84    86   ar
    58    27    25   ar
    59    23    22    2
    60    77    75   am
    61    36    37    1
    62    49    51    1
    63    49    50    1
    64    69    70    1
    65   105   111    1
    66   105   106    1
    67    90    88   ar
    68    31    30    1
    69    70    71    1
    70    30    28   ar
    71    83    85   ar
    72   111   110    1
    73    86    88   ar
    74    86    85   ar
    75    22    21    1
    76    25    24    1
    77    25    26   ar
    78    37    38    1
    79    71    73   am
    80    71    72    2
    81    75    76    2
    82    75    74    1
    83    73    74    1
    84    24    21    1
    85   106   107    1
    86   106   109    1
    87   107   108    2
    88    28    26   ar
    89    21    20    1
    90    38    39    2
    91    38    40   am
    92   110   109    1
    93    20    14   am
    94    14    13    1
    95    14    15    2
    96   124   125    1
    97   124   121    1
    98     4     3    2
    99    13    16    1
   100    13    12    1
   101   123   122    2
   102   122   121    1
   103    16    17    1
   104    18    17   ar
   105    17    19   ar
   106   112   113    1
   107   125   127   ar
   108   125   126   ar
   109   121   120    1
   110   127   129   ar
   111   120   114   am
   112     3    12   am
   113     3     2    1
   114   126   128   ar
   115   129   130   ar
   116   118   117    2
   117   113   114    1
   118   113   116    1
   119     1     2    1
   120   114   115    2
   121   128   130   ar
   122   130   131    1
   123     2     5    1
   124   117   116    1
   125   117   119   am
   126     5     6    1
   127     6     8   ar
   128     6     7   ar
   129     8    10   ar
   130     7     9   ar
   131    10    11   ar
   132     9    11   ar
