@<TRIPOS>MOLECULE
tmp/1ywqA00.pdb
 96 96 0 0 0
SMALL
GASTEIGER

@<TRIPOS>ATOM
      1  N         19.2450   15.5490    5.0170 N.3    40  HIS40      -0.1241
      2  CA        19.6270   14.9670    3.7390 C.3    40  HIS40       0.1621
      3  C         19.4320   16.0050    2.6440 C.2    40  HIS40       0.2264
      4  O         19.7730   15.7670    1.4880 O.2    40  HIS40      -0.2867
      5  CB        18.8120   13.7150    3.4260 C.3    40  HIS40       0.0745
      6  CG        19.3950   12.4700    4.0100 C.ar   40  HIS40       0.0817
      7  ND1       19.2810   12.1490    5.3450 N.ar   40  HIS40      -0.2268
      8  CD2       20.1400   11.4890    3.4490 C.ar   40  HIS40       0.1154
      9  CE1       19.9300   11.0230    5.5840 C.ar   40  HIS40       0.1986
     10  NE2       20.4600   10.6020    4.4500 N.ar   40  HIS40      -0.2212
     11  N         20.3290   19.0170    0.4190 N.3    42  PRO42      -0.2102
     12  CA        21.6740   19.3940   -0.0310 C.3    42  PRO42       0.1504
     13  C         22.1600   20.8030    0.3160 C.2    42  PRO42       0.2576
     14  O         21.3660   21.7010    0.5990 O.2    42  PRO42      -0.2718
     15  CB        21.5830   19.1880   -1.5310 C.3    42  PRO42       0.0282
     16  CG        20.1810   19.6510   -1.8160 C.3    42  PRO42       0.0208
     17  CD        19.3750   19.0190   -0.7050 C.3    42  PRO42       0.0893
     18  N         23.4820   20.9720    0.2930 N.am   43  THR43      -0.1939
     19  CA        24.1310   22.2570    0.5550 C.3    43  THR43       0.2028
     20  C         25.1950   22.4690   -0.5310 C.2    43  THR43       0.2643
     21  O         25.7520   21.5020   -1.0480 O.2    43  THR43      -0.2714
     22  CB        24.7940   22.3180    1.9820 C.3    43  THR43       0.1808
     23  OG1       25.4760   21.0880    2.2710 O.3    43  THR43      -0.2208
     24  CG2       23.7470   22.5790    3.0520 C.3    43  THR43       0.0379
     25  N         25.4620   23.7230   -0.8910 N.am   44  SER44      -0.1935
     26  CA        26.4590   24.0190   -1.9210 C.3    44  SER44       0.2055
     27  C         27.8190   23.4770   -1.4970 C.2    44  SER44       0.2643
     28  O         28.2750   23.7420   -0.3810 O.2    44  SER44      -0.2714
     29  CB        26.5500   25.5240   -2.1520 C.3    44  SER44       0.2130
     30  OG        26.9340   26.1830   -0.9660 O.3    44  SER44      -0.2179
     31  N         28.4710   22.7290   -2.3880 N.am   45  PHE45      -0.1959
     32  CA        29.7640   22.1230   -2.0780 C.3    45  PHE45       0.1771
     33  C         29.6370   21.2630   -0.8270 C.2    45  PHE45       0.2619
     34  O         30.6250   20.9830   -0.1510 O.2    45  PHE45      -0.2715
     35  CB        30.8340   23.1850   -1.8370 C.3    45  PHE45       0.0574
     36  CG        31.3140   23.8570   -3.0880 C.ar   45  PHE45      -0.0200
     37  CD1       30.5630   24.8650   -3.6890 C.ar   45  PHE45      -0.0042
     38  CD2       32.5180   23.4790   -3.6740 C.ar   45  PHE45      -0.0042
     39  CE1       31.0060   25.4860   -4.8540 C.ar   45  PHE45      -0.0003
     40  CE2       32.9710   24.0940   -4.8390 C.ar   45  PHE45      -0.0003
     41  CZ        32.2130   25.1000   -5.4300 C.ar   45  PHE45      -0.0000
     42  N         28.4100   20.8610   -0.5140 N.am   46  ASN46      -0.1972
     43  CA        28.1670   20.0430    0.6570 C.3    46  ASN46       0.1688
     44  C         28.8050   20.6910    1.8840 C.2    46  ASN46       0.2292
     45  O         29.2470   19.9980    2.7950 O.2    46  ASN46      -0.2864
     46  CB        28.7540   18.6520    0.4230 C.3    46  ASN46       0.1181
     47  CG        28.3300   17.6510    1.4730 C.2    46  ASN46       0.2629
     48  OD1       27.1520   17.5660    1.8290 O.2    46  ASN46      -0.2716
     49  ND2       29.2890   16.8710    1.9640 N.am   46  ASN46      -0.0877
     50  N         33.3950   31.3430   -6.8250 N.3   116  TYR116     -0.1241
     51  CA        31.9880   31.4350   -6.4670 C.3   116  TYR116      0.1605
     52  C         31.8130   32.2380   -5.1850 C.2   116  TYR116      0.2264
     53  O         30.7470   32.2210   -4.5710 O.2   116  TYR116     -0.2867
     54  CB        31.4230   30.0250   -6.2970 C.3   116  TYR116      0.0534
     55  CG        31.3450   29.2410   -7.5910 C.ar  116  TYR116     -0.0201
     56  CD1       30.3310   29.4890   -8.5150 C.ar  116  TYR116     -0.0009
     57  CD2       32.2680   28.2370   -7.8840 C.ar  116  TYR116     -0.0009
     58  CE1       30.2260   28.7530   -9.7000 C.ar  116  TYR116      0.0417
     59  CE2       32.1760   27.4920   -9.0740 C.ar  116  TYR116      0.0417
     60  CZ        31.1460   27.7540   -9.9750 C.ar  116  TYR116      0.1957
     61  OH        31.0060   27.0030  -11.1300 O.3   116  TYR116     -0.2866
     62  N         23.9210   31.0410   -1.3490 N.3   123  TRP123     -0.1241
     63  CA        23.7700   29.5900   -1.3010 C.3   123  TRP123      0.1605
     64  C         23.5860   29.1570    0.1470 C.2   123  TRP123      0.2264
     65  O         23.0340   28.0940    0.4430 O.2   123  TRP123     -0.2867
     66  CB        25.0030   28.9210   -1.8970 C.3   123  TRP123      0.0550
     67  CG        25.0810   29.0860   -3.3580 C.ar  123  TRP123      0.0003
     68  CD1       24.0750   29.4840   -4.1910 C.ar  123  TRP123      0.0946
     69  CD2       26.2010   28.7850   -4.1940 C.ar  123  TRP123      0.0152
     70  NE1       24.4960   29.4450   -5.4990 N.ar  123  TRP123     -0.2442
     71  CE2       25.7980   29.0180   -5.5310 C.ar  123  TRP123      0.0810
     72  CE3       27.5080   28.3370   -3.9470 C.ar  123  TRP123      0.0012
     73  CZ2       26.6550   28.8170   -6.6210 C.ar  123  TRP123      0.0191
     74  CZ3       28.3630   28.1350   -5.0330 C.ar  123  TRP123      0.0001
     75  CH2       27.9280   28.3760   -6.3540 C.ar  123  TRP123      0.0015
     76  N         20.0450   29.6530    0.6630 N.3   126  GLN126     -0.1231
     77  CA        19.3560   28.6440   -0.1200 C.3   126  GLN126      0.1698
     78  C         19.3950   27.3030    0.6020 C.2   126  GLN126      0.2592
     79  O         18.3610   26.6560    0.7910 O.2   126  GLN126     -0.2718
     80  CB        20.0040   28.5260   -1.4980 C.3   126  GLN126      0.0381
     81  CG        19.6030   29.6430   -2.4450 C.3   126  GLN126      0.0905
     82  CD        20.3970   29.6290   -3.7330 C.2   126  GLN126      0.2608
     83  OE1       20.8560   28.5740   -4.1800 O.2   126  GLN126     -0.2717
     84  NE2       20.5500   30.8010   -4.3500 N.am  126  GLN126     -0.0878
     85  N         20.5920   26.9000    1.0200 N.am  127  GLY127     -0.1957
     86  CA        20.7400   25.6390    1.7140 C.3   127  GLY127      0.1869
     87  C         19.9010   25.5620    2.9720 C.2   127  GLY127      0.2309
     88  O         19.2840   24.5270    3.2440 O.2   127  GLY127     -0.2863
     89  N         16.1360   25.1790    2.0500 N.3   130  MET130     -0.1245
     90  CA        15.8130   23.8120    1.6280 C.3   130  MET130      0.1570
     91  C         15.6350   22.9450    2.8730 C.2   130  MET130      0.2261
     92  O         14.7140   22.1340    2.9560 O.2   130  MET130     -0.2867
     93  CB        16.9350   23.2320    0.7610 C.3   130  MET130      0.0387
     94  CG        17.1470   23.9410   -0.5640 C.3   130  MET130      0.0595
     95  SD        18.4850   23.1890   -1.5030 S.3   130  MET130     -0.1393
     96  CE        18.3740   24.1400   -2.9950 C.3   130  MET130      0.0692
@<TRIPOS>BOND
     1    61    60    1
     2    60    58   ar
     3    60    59   ar
     4    58    56   ar
     5    59    57   ar
     6    56    55   ar
     7    57    55   ar
     8    55    54    1
     9    50    51    1
    10    73    75   ar
    11    73    71   ar
    12    51    54    1
    13    51    52    1
    14    75    74   ar
    15    71    70   ar
    16    71    69   ar
    17    70    68   ar
    18    41    39   ar
    19    41    40   ar
    20    52    53    2
    21    74    72   ar
    22    39    37   ar
    23    40    38   ar
    24    84    82   am
    25    69    72   ar
    26    69    67   ar
    27    68    67   ar
    28    83    82    2
    29    82    81    1
    30    37    36   ar
    31    38    36   ar
    32    67    66    1
    33    36    35    1
    34    96    95    1
    35    81    80    1
    36    31    32    1
    37    31    27   am
    38    29    26    1
    39    29    30    1
    40    32    35    1
    41    32    33    1
    42    26    27    1
    43    26    25    1
    44    66    63    1
    45    16    15    1
    46    16    17    1
    47    15    12    1
    48    95    94    1
    49    80    77    1
    50    27    28    2
    51    62    63    1
    52    63    64    1
    53    21    20    2
    54    25    20   am
    55    33    42   am
    56    33    34    2
    57    17    11    1
    58    94    93    1
    59    20    19    1
    60    42    43    1
    61    77    78    1
    62    77    76    1
    63    12    13    1
    64    12    11    1
    65    64    65    2
    66    18    13   am
    67    18    19    1
    68    13    14    2
    69    46    43    1
    70    46    47    1
    71    19    22    1
    72    78    79    2
    73    78    85   am
    74    43    44    1
    75    93    90    1
    76    85    86    1
    77    47    48    2
    78    47    49   am
    79     4     3    2
    80    90    89    1
    81    90    91    1
    82    86    87    1
    83    44    45    2
    84    22    23    1
    85    22    24    1
    86     3     2    1
    87    91    92    2
    88    87    88    2
    89     5     2    1
    90     5     6    1
    91     8     6   ar
    92     8    10   ar
    93     2     1    1
    94     6     7   ar
    95    10     9   ar
    96     7     9   ar
