@<TRIPOS>MOLECULE
tmp/1ywrA00.pdb
 177 166 0 0 0
SMALL
GASTEIGER

@<TRIPOS>ATOM
      1  N          8.4030   -1.7040   28.0930 N.3    26  VAL26      -0.1231
      2  CA         7.0480   -1.1990   28.2080 C.3    26  VAL26       0.1692
      3  C          6.0440   -2.3370   28.1350 C.2    26  VAL26       0.2592
      4  O          4.9990   -2.3080   28.7810 O.2    26  VAL26      -0.2718
      5  CB         6.7750   -0.1870   27.0720 C.3    26  VAL26       0.0266
      6  CG1        5.5240   -0.6500   26.3480 C.3    26  VAL26       0.0020
      7  CG2        6.6690    1.2240   27.6060 C.3    26  VAL26       0.0020
      8  N          6.3700   -3.3560   27.3360 N.am   27  GLY27      -0.1957
      9  CA         5.4590   -4.4790   27.1840 C.3    27  GLY27       0.1869
     10  C          6.0780   -5.6780   26.5050 C.2    27  GLY27       0.2309
     11  O          7.1150   -5.6070   25.8470 O.2    27  GLY27      -0.2863
     12  N          4.8010  -12.2590   20.8460 N.3    31  TYR31      -0.1241
     13  CA         5.1050  -11.4420   19.6870 C.3    31  TYR31       0.1605
     14  C          6.5340  -10.9220   19.6540 C.2    31  TYR31       0.2264
     15  O          7.1570  -10.7710   18.6060 O.2    31  TYR31      -0.2867
     16  CB         4.1520  -10.2320   19.6350 C.3    31  TYR31       0.0534
     17  CG         4.3930   -9.2050   20.7170 C.ar   31  TYR31      -0.0201
     18  CD1        5.1500   -8.0620   20.5070 C.ar   31  TYR31      -0.0009
     19  CD2        3.8430   -9.3910   21.9800 C.ar   31  TYR31      -0.0009
     20  CE1        5.3570   -7.1390   21.5110 C.ar   31  TYR31       0.0417
     21  CE2        4.0410   -8.4760   22.9930 C.ar   31  TYR31       0.0417
     22  CZ         4.7990   -7.3500   22.7540 C.ar   31  TYR31       0.1957
     23  OH         4.9900   -6.4420   23.7710 O.3    31  TYR31      -0.2866
     24  N          8.4540   -4.5090   23.3820 N.3    34  VAL34      -0.1245
     25  CA         8.4540   -3.0810   23.1040 C.3    34  VAL34       0.1561
     26  C          9.1480   -2.2750   24.2020 C.2    34  VAL34       0.2260
     27  O          8.9020   -2.4930   25.3860 O.2    34  VAL34      -0.2867
     28  CB         7.0190   -2.5430   22.9620 C.3    34  VAL34       0.0252
     29  CG1        7.0420   -1.0400   22.7430 C.3    34  VAL34       0.0019
     30  CG2        6.3150   -3.2610   21.8200 C.3    34  VAL34       0.0019
     31  N          8.3170    4.3610   20.3060 N.3    47  ALA47      -0.1245
     32  CA         8.1780    2.9880   20.7650 C.3    47  ALA47       0.1562
     33  C          8.9490    2.1450   19.7470 C.2    47  ALA47       0.2260
     34  O          8.7460    2.3080   18.5410 O.2    47  ALA47      -0.2867
     35  CB         6.7370    2.5470   20.9120 C.3    47  ALA47       0.0290
     36  N          9.7510   -1.7300   18.6930 N.3    49  LYS49      -0.1245
     37  CA         9.3110   -3.1040   18.8510 C.3    49  LYS49       0.1561
     38  C         10.2810   -4.0570   18.1640 C.2    49  LYS49       0.2260
     39  O         10.5280   -3.9430   16.9650 O.2    49  LYS49      -0.2867
     40  CB         7.9180   -3.3340   18.2590 C.3    49  LYS49       0.0271
     41  CG         7.5740   -4.8260   18.2020 C.3    49  LYS49       0.0035
     42  CD         6.0770   -5.0450   18.2860 C.3    49  LYS49       0.0206
     43  CE         5.3730   -5.0040   16.9480 C.3    49  LYS49       0.1093
     44  NZ         3.9330   -5.4030   17.0630 N.3    49  LYS49      -0.1314
     45  N          3.1860   -7.9150    8.7910 N.3    67  GLU67      -0.1245
     46  CA         3.2240   -6.7410    9.6530 C.3    67  GLU67       0.1567
     47  C          4.0230   -5.5870    9.0510 C.2    67  GLU67       0.2260
     48  O          3.5430   -4.4470    8.9970 O.2    67  GLU67      -0.2867
     49  CB         3.8530   -7.0870   11.0140 C.3    67  GLU67       0.0388
     50  CG         3.8800   -5.8630   11.9200 C.3    67  GLU67       0.1160
     51  CD         3.9050   -6.2090   13.3920 C.2    67  GLU67       0.3649
     52  OE1        4.3370   -7.3290   13.7270 O.co2  67  GLU67      -0.2457
     53  OE2        3.5090   -5.3740   14.2350 O.co2  67  GLU67      -0.2457
     54  N          2.3150   -1.9280    8.1630 N.3    71  LEU71      -0.1245
     55  CA         2.8130   -0.7230    8.8080 C.3    71  LEU71       0.1561
     56  C          3.4190    0.2600    7.8190 C.2    71  LEU71       0.2260
     57  O          3.2770    1.4830    7.9240 O.2    71  LEU71      -0.2867
     58  CB         3.8660   -1.0530    9.8850 C.3    71  LEU71       0.0270
     59  CG         3.2820   -1.5320   11.2180 C.3    71  LEU71       0.0019
     60  CD1        4.3890   -1.9540   12.1730 C.3    71  LEU71       0.0001
     61  CD2        2.4200   -0.4420   11.8290 C.3    71  LEU71       0.0001
     62  N         -1.6400    3.4680   13.7880 N.3    80  ILE80      -0.1245
     63  CA        -0.2060    3.3920   14.0170 C.3    80  ILE80       0.1561
     64  C          0.4880    3.1860   12.6810 C.2    80  ILE80       0.2260
     65  O          0.0320    2.3760   11.8630 O.2    80  ILE80      -0.2867
     66  CB         0.1660    2.2510   14.9700 C.3    80  ILE80       0.0252
     67  CG1        0.7310    2.7560   16.3000 C.3    80  ILE80       0.0019
     68  CG2        1.1370    1.2750   14.3320 C.3    80  ILE80       0.0019
     69  CD1       -0.3260    3.3310   17.2070 C.3    80  ILE80       0.0001
     70  N          4.6380    3.7820   10.5540 N.3    82  LEU82      -0.1245
     71  CA         6.0640    3.5160   10.6850 C.3    82  LEU82       0.1561
     72  C          6.9190    4.7740   10.6260 C.2    82  LEU82       0.2260
     73  O          6.9750    5.4920    9.6280 O.2    82  LEU82      -0.2867
     74  CB         6.4760    2.5700    9.5590 C.3    82  LEU82       0.0270
     75  CG         6.8560    1.1270    9.8390 C.3    82  LEU82       0.0019
     76  CD1        7.8080    0.6370    8.7500 C.3    82  LEU82       0.0001
     77  CD2        7.4950    0.9310   11.2050 C.3    82  LEU82       0.0001
     78  N         10.8060   -2.3570   14.7120 N.3   100  LEU100     -0.1231
     79  CA         9.8360   -1.4130   14.1670 C.3   100  LEU100      0.1693
     80  C          9.7010   -0.2010   15.0870 C.2   100  LEU100      0.2592
     81  O          9.7190   -0.4190   16.2950 O.2   100  LEU100     -0.2718
     82  CB         8.4660   -2.0840   13.9990 C.3   100  LEU100      0.0284
     83  CG         8.4600   -3.3190   13.0860 C.3   100  LEU100      0.0019
     84  CD1        7.2580   -4.2010   13.3590 C.3   100  LEU100      0.0001
     85  CD2        8.4910   -2.9110   11.6150 C.3   100  LEU100      0.0001
     86  N          9.5740    1.0020   14.5530 N.am  101  VAL101     -0.1966
     87  CA         9.5560    2.2190   15.3590 C.3   101  VAL101      0.1727
     88  C          8.3250    3.0430   14.9880 C.2   101  VAL101      0.2617
     89  O          8.0680    3.2280   13.8070 O.2   101  VAL101     -0.2715
     90  CB        10.8070    3.0900   15.1450 C.3   101  VAL101      0.0290
     91  CG1       10.8080    4.3340   16.0110 C.3   101  VAL101      0.0023
     92  CG2       12.0850    2.3020   15.4310 C.3   101  VAL101      0.0023
     93  N          7.6200    3.5390   15.9890 N.am  102  THR102     -0.1937
     94  CA         6.4590    4.3920   15.8090 C.3   102  THR102      0.2028
     95  C          6.3960    5.3910   16.9600 C.2   102  THR102      0.2642
     96  O          7.1820    5.2840   17.9110 O.2   102  THR102     -0.2714
     97  CB         5.1720    3.5440   15.7340 C.3   102  THR102      0.1808
     98  OG1        4.0700    4.3270   15.2470 O.3   102  THR102     -0.2208
     99  CG2        4.7530    3.0700   17.1210 C.3   102  THR102      0.0379
    100  N          5.4950    6.3620   16.9180 N.am  103  HIS103     -0.1959
    101  CA         5.4740    7.3720   17.9840 C.3   103  HIS103      0.1787
    102  C          4.9760    6.7100   19.2650 C.2   103  HIS103      0.2620
    103  O          4.1130    5.8440   19.2730 O.2   103  HIS103     -0.2715
    104  CB         4.6320    8.5990   17.6860 C.3   103  HIS103      0.0785
    105  CG         4.4500    9.0020   16.2660 C.ar  103  HIS103      0.0821
    106  ND1        3.8360    8.1970   15.3250 N.ar  103  HIS103     -0.2267
    107  CD2        4.7910   10.1410   15.6140 C.ar  103  HIS103      0.1154
    108  CE1        3.8100    8.8160   14.1580 C.ar  103  HIS103      0.1986
    109  NE2        4.3840   10.0000   14.3090 N.ar  103  HIS103     -0.2212
    110  N          5.5520    7.1120   20.3940 N.am  104  LEU104     -0.1963
    111  CA         5.1330    6.4840   21.6420 C.3   104  LEU104      0.1728
    112  C          3.7400    6.9600   22.0240 C.2   104  LEU104      0.2616
    113  O          3.4350    8.1530   21.9340 O.2   104  LEU104     -0.2715
    114  CB         6.1630    6.8060   22.7200 C.3   104  LEU104      0.0311
    115  CG         5.9040    6.2700   24.1260 C.3   104  LEU104      0.0022
    116  CD1        6.0410    4.7550   24.1780 C.3   104  LEU104      0.0001
    117  CD2        6.8770    6.9620   25.0820 C.3   104  LEU104      0.0001
    118  N          2.8920    6.0290   22.4460 N.am  105  MET105     -0.1963
    119  CA         1.5600    6.3410   22.9490 C.3   105  MET105      0.1736
    120  C          1.5800    6.0530   24.4520 C.2   105  MET105      0.2617
    121  O          2.4110    5.2200   24.8400 O.2   105  MET105     -0.2715
    122  CB         0.4700    5.5310   22.2610 C.3   105  MET105      0.0427
    123  CG         0.3480    5.7710   20.7650 C.3   105  MET105      0.0599
    124  SD        -0.1340    7.4590   20.3570 S.3   105  MET105     -0.1393
    125  CE        -1.8820    7.4100   20.7490 C.3   105  MET105      0.0692
    126  N          0.7100    6.7070   25.2010 N.am  106  GLY106     -0.1940
    127  CA         0.6380    6.6340   26.6420 C.3   106  GLY106      0.2014
    128  C          0.1350    5.3440   27.2380 C.2   106  GLY106      0.2639
    129  O          0.7940    4.6940   28.0590 O.2   106  GLY106     -0.2714
    130  N         -1.0630    4.9030   26.8610 N.am  107  ALA107     -0.1963
    131  CA        -1.5950    3.6560   27.3890 C.3   107  ALA107      0.1728
    132  C         -2.6030    3.0870   26.3980 C.2   107  ALA107      0.2616
    133  O         -2.6970    3.6100   25.2850 O.2   107  ALA107     -0.2715
    134  CB        -2.2370    3.8820   28.7490 C.3   107  ALA107      0.0334
    135  N         -3.3400    2.0650   26.8070 N.am  108  ASP108     -0.1971
    136  CA        -4.3710    1.5350   25.9080 C.3   108  ASP108      0.1709
    137  C         -5.7320    1.8160   26.5370 C.2   108  ASP108      0.2293
    138  O         -5.8130    2.4020   27.6140 O.2   108  ASP108     -0.2864
    139  CB        -4.1690    0.0640   25.5900 C.3   108  ASP108      0.1436
    140  CG        -4.3220   -0.8970   26.7430 C.2   108  ASP108      0.3671
    141  OD1       -3.4760   -1.8200   26.8610 O.co2 108  ASP108     -0.2456
    142  OD2       -5.2840   -0.7570   27.5280 O.co2 108  ASP108     -0.2456
    143  N         -7.5280   -3.2320   24.2670 N.3   149  SER149     -0.1202
    144  CA        -6.0700   -3.2700   24.4030 C.3   149  SER149      0.2020
    145  C         -5.3580   -3.0450   23.0750 C.2   149  SER149      0.2618
    146  O         -4.1330   -2.9170   23.0470 O.2   149  SER149     -0.2717
    147  CB        -5.6220   -4.6090   24.9870 C.3   149  SER149      0.2103
    148  OG        -5.8390   -5.6380   24.0360 O.3   149  SER149     -0.2182
    149  N         -6.0910   -2.9910   21.9610 N.am  150  ASN150     -0.1974
    150  CA        -5.5170   -2.6690   20.6580 C.3   150  ASN150      0.1688
    151  C         -5.7590   -1.2040   20.2930 C.2   150  ASN150      0.2292
    152  O         -5.4850   -0.8360   19.1530 O.2   150  ASN150     -0.2864
    153  CB        -6.1320   -3.5290   19.5490 C.3   150  ASN150      0.1181
    154  CG        -5.4750   -4.8850   19.4260 C.2   150  ASN150      0.2629
    155  OD1       -6.1270   -5.8680   19.0750 O.2   150  ASN150     -0.2716
    156  ND2       -4.1800   -4.9280   19.7160 N.am  150  ASN150     -0.0877
    157  N         -4.6360    2.5310   21.2940 N.3   152  ALA152     -0.1245
    158  CA        -3.6400    3.2810   22.0770 C.3   152  ALA152      0.1562
    159  C         -4.0760    4.7260   22.2190 C.2   152  ALA152      0.2260
    160  O         -4.6180    5.3010   21.2630 O.2   152  ALA152     -0.2867
    161  CB        -2.2810    3.1940   21.4130 C.3   152  ALA152      0.0290
    162  N         -4.1420   -0.2010   16.7940 N.3   162  LEU162     -0.1231
    163  CA        -2.9520   -1.0340   16.7770 C.3   162  LEU162      0.1693
    164  C         -3.2630   -2.4390   16.2610 C.2   162  LEU162      0.2592
    165  O         -4.4150   -2.8520   16.3990 O.2   162  LEU162     -0.2718
    166  CB        -2.3840   -1.2000   18.1840 C.3   162  LEU162      0.0284
    167  CG        -1.6930   -0.0620   18.9160 C.3   162  LEU162      0.0019
    168  CD1       -2.4000    1.2690   18.7370 C.3   162  LEU162      0.0001
    169  CD2       -1.5940   -0.3940   20.4090 C.3   162  LEU162      0.0001
    170  N         -2.2980   -3.1820   15.7470 N.am  163  ASP163     -0.1974
    171  CA        -2.4070   -4.6010   15.4300 C.3   163  ASP163      0.1709
    172  C         -3.4780   -4.9920   14.4130 C.2   163  ASP163      0.2293
    173  O         -3.9810   -6.1260   14.4470 O.2   163  ASP163     -0.2864
    174  CB        -2.6680   -5.3570   16.7510 C.3   163  ASP163      0.1436
    175  CG        -1.4080   -5.9760   17.3300 C.2   163  ASP163      0.3671
    176  OD1       -0.3010   -5.5640   16.9120 O.co2 163  ASP163     -0.2456
    177  OD2       -1.5130   -6.8660   18.2070 O.co2 163  ASP163     -0.2456
@<TRIPOS>BOND
     1    56    57    2
     2    56    55    1
     3    54    55    1
     4    76    75    1
     5    45    46    1
     6    55    58    1
     7    48    47    2
     8    47    46    1
     9    74    75    1
    10    74    71    1
    11    73    72    2
    12    46    49    1
    13    75    77    1
    14    58    59    1
    15    70    71    1
    16    72    71    1
    17    49    50    1
    18    59    61    1
    19    59    60    1
    20    85    83    1
    21    65    64    2
    22    50    51    1
    23    64    63    1
    24    83    84    1
    25    83    82    1
    26    51    52   ar
    27    51    53   ar
    28    62    63    1
    29    89    88    2
    30    82    79    1
    31    63    66    1
    32   108   109   ar
    33   108   106   ar
    34    79    78    1
    35    79    80    1
    36   109   107   ar
    37    68    66    1
    38   172   173    2
    39   172   171    1
    40    86    80   am
    41    86    87    1
    42    66    67    1
    43    88    87    1
    44    88    93   am
    45    80    81    2
    46    90    87    1
    47    90    92    1
    48    90    91    1
    49    98    97    1
    50   106   105   ar
    51   171   170    1
    52   171   174    1
    53   107   105   ar
    54    97    94    1
    55    97    99    1
    56   170   164   am
    57    94    93    1
    58    94    95    1
    59   164   165    2
    60   164   163    1
    61   105   104    1
    62    67    69    1
    63   174   175    1
    64   163   162    1
    65   163   166    1
    66   176   175   ar
    67   100    95   am
    68   100   101    1
    69    43    44    1
    70    43    42    1
    71    95    96    2
    72    39    38    2
    73   175   177   ar
    74   104   101    1
    75   101   102    1
    76    38    37    1
    77   166   167    1
    78    41    40    1
    79    41    42    1
    80    40    37    1
    81    34    33    2
    82    15    14    2
    83    36    37    1
    84   168   167    1
    85   167   169    1
    86   155   154    2
    87   152   151    2
    88   102   103    2
    89   102   110   am
    90   154   153    1
    91   154   156   am
    92   153   150    1
    93    16    13    1
    94    16    17    1
    95    14    13    1
    96    13    12    1
    97    33    32    1
    98   151   150    1
    99    31    32    1
   100   124   125    1
   101   124   123    1
   102   110   111    1
   103    18    17   ar
   104    18    20   ar
   105   150   149    1
   106    17    19   ar
   107    32    35    1
   108   123   122    1
   109   160   159    2
   110   157   158    1
   111   161   158    1
   112    20    22   ar
   113   111   112    1
   114   111   114    1
   115    30    28    1
   116   113   112    2
   117   149   145   am
   118    19    21   ar
   119   112   118   am
   120   158   159    1
   121   122   119    1
   122   118   119    1
   123   114   115    1
   124    29    28    1
   125    22    21   ar
   126    22    23    1
   127   119   120    1
   128    28    25    1
   129   146   145    2
   130   145   144    1
   131    25    24    1
   132    25    26    1
   133   148   147    1
   134   115   116    1
   135   115   117    1
   136    26    27    2
   137   143   144    1
   138   144   147    1
   139   120   121    2
   140   120   126   am
   141   126   127    1
   142   133   132    2
   143   139   136    1
   144   139   140    1
   145    11    10    2
   146   136   137    1
   147   136   135    1
   148     6     5    1
   149   132   135   am
   150   132   131    1
   151    10     9    1
   152   137   138    2
   153   127   128    1
   154   140   141   ar
   155   140   142   ar
   156   130   128   am
   157   130   131    1
   158     5     7    1
   159     5     2    1
   160     9     8    1
   161   128   129    2
   162     8     3   am
   163   131   134    1
   164     1     2    1
   165     3     2    1
   166     3     4    2
