@<TRIPOS>MOLECULE
tmp/1ywtB00.pdb
 231 217 0 0 0
SMALL
GASTEIGER

@<TRIPOS>ATOM
      1  N         28.6300    4.4530   56.8750 N.3    42  ASN42      -0.1240
      2  CA        27.9730    5.4880   57.6460 C.3    42  ASN42       0.1653
      3  C         28.1640    6.8590   57.0390 C.2    42  ASN42       0.2266
      4  O         27.2640    7.6950   57.0980 O.2    42  ASN42      -0.2867
      5  CB        28.4980    5.4300   59.0750 C.3    42  ASN42       0.1155
      6  CG        27.8930    4.2840   59.8560 C.2    42  ASN42       0.2627
      7  OD1       26.6860    4.2730   60.1200 O.2    42  ASN42      -0.2716
      8  ND2       28.7190    3.3020   60.2150 N.am   42  ASN42      -0.0877
      9  N         25.4160    7.1110   54.3280 N.3    45  SER45      -0.1202
     10  CA        24.0480    7.3930   54.7440 C.3    45  SER45       0.2020
     11  C         23.9320    8.7540   55.4190 C.2    45  SER45       0.2618
     12  O         22.9110    9.4240   55.2900 O.2    45  SER45      -0.2717
     13  CB        23.5080    6.3010   55.6910 C.3    45  SER45       0.2103
     14  OG        24.2560    6.1960   56.8790 O.3    45  SER45      -0.2182
     15  N         24.9690    9.1640   56.1480 N.am   46  VAL46      -0.1979
     16  CA        24.9220   10.4700   56.7910 C.3    46  VAL46       0.1595
     17  C         24.8590   11.5870   55.7490 C.2    46  VAL46       0.2287
     18  O         24.0640   12.5260   55.8740 O.2    46  VAL46      -0.2864
     19  CB        26.1380   10.7130   57.7290 C.3    46  VAL46       0.0276
     20  CG1       26.1590   12.1660   58.1900 C.3    46  VAL46       0.0022
     21  CG2       26.0430    9.8150   58.9640 C.3    46  VAL46       0.0022
     22  N         21.4370   11.3130   53.9660 N.3    49  LYS49      -0.1231
     23  CA        20.3640   11.5600   54.9150 C.3    49  LYS49       0.1693
     24  C         20.2020   13.0670   55.1340 C.2    49  LYS49       0.2592
     25  O         19.0910   13.6030   55.1790 O.2    49  LYS49      -0.2718
     26  CB        20.7320   10.8750   56.2290 C.3    49  LYS49       0.0285
     27  CG        19.6350   10.8810   57.2740 C.3    49  LYS49       0.0035
     28  CD        18.4150   10.1030   56.7860 C.3    49  LYS49       0.0206
     29  CE        17.3520    9.9750   57.8670 C.3    49  LYS49       0.1093
     30  NZ        16.8830   11.2920   58.3810 N.3    49  LYS49      -0.1314
     31  N         21.3290   13.7550   55.2670 N.am   50  ASN50      -0.1974
     32  CA        21.2900   15.1860   55.4720 C.3    50  ASN50       0.1688
     33  C         20.7870   15.9180   54.2430 C.2    50  ASN50       0.2292
     34  O         19.9310   16.7940   54.3520 O.2    50  ASN50      -0.2864
     35  CB        22.6820   15.6380   55.8980 C.3    50  ASN50       0.1181
     36  CG        22.9450   15.3690   57.3750 C.2    50  ASN50       0.2629
     37  OD1       22.4860   16.1140   58.2450 O.2    50  ASN50      -0.2716
     38  ND2       23.6600   14.2880   57.6650 N.am   50  ASN50      -0.0877
     39  N         13.1230   17.0460   52.2840 N.3    56  ARG56      -0.1245
     40  CA        11.8890   16.5330   52.8680 C.3    56  ARG56       0.1563
     41  C         11.2520   17.5630   53.7700 C.2    56  ARG56       0.2260
     42  O         10.0340   17.7160   53.7750 O.2    56  ARG56      -0.2867
     43  CB        12.1780   15.2570   53.6670 C.3    56  ARG56       0.0307
     44  CG        12.4320   14.0180   52.8330 C.3    56  ARG56       0.0489
     45  CD        12.8760   12.8680   53.7260 C.3    56  ARG56       0.2205
     46  NE        11.8290   12.4210   54.6470 N.pl3  56  ARG56      -0.0865
     47  CZ        12.0650   11.8160   55.8140 C.cat  56  ARG56       0.5346
     48  NH1       13.3080   11.5910   56.2110 N.pl3  56  ARG56       0.1354
     49  NH2       11.0600   11.4180   56.5760 N.pl3  56  ARG56       0.1354
     50  N          7.6030   19.3300   53.2640 N.3    60  ARG60      -0.1245
     51  CA         6.5610   19.3260   54.3040 C.3    60  ARG60       0.1563
     52  C          6.0950   20.7380   54.6620 C.2    60  ARG60       0.2260
     53  O          4.9030   20.9790   54.8470 O.2    60  ARG60      -0.2867
     54  CB         7.0870   18.6080   55.5680 C.3    60  ARG60       0.0307
     55  CG         7.2170   17.0840   55.4340 C.3    60  ARG60       0.0489
     56  CD         7.7030   16.3940   56.7270 C.3    60  ARG60       0.2205
     57  NE         8.9470   16.9670   57.2430 N.pl3  60  ARG60      -0.0865
     58  CZ        10.0390   16.2710   57.5570 C.cat  60  ARG60       0.5346
     59  NH1       10.0650   14.9490   57.4140 N.pl3  60  ARG60       0.1354
     60  NH2       11.1180   16.9030   58.0050 N.pl3  60  ARG60       0.1354
     61  N          2.2130   21.9320   53.5360 N.3    64  SER64      -0.1217
     62  CA         1.2850   22.3530   54.5800 C.3    64  SER64       0.1889
     63  C          0.7950   23.7690   54.3100 C.2    64  SER64       0.2288
     64  O         -0.3610   24.0990   54.5740 O.2    64  SER64      -0.2866
     65  CB         1.9680   22.2960   55.9480 C.3    64  SER64       0.2089
     66  OG         3.0910   23.1530   55.9970 O.3    64  SER64      -0.2183
     67  N         18.1310   -1.8350   53.7970 N.3   113  LYS113     -0.1245
     68  CA        17.3520   -0.9010   54.6010 C.3   113  LYS113      0.1561
     69  C         17.3750    0.4700   53.9190 C.2   113  LYS113      0.2260
     70  O         16.3540    1.1670   53.8030 O.2   113  LYS113     -0.2867
     71  CB        17.9800   -0.8230   55.9990 C.3   113  LYS113      0.0271
     72  CG        17.4960    0.3550   56.8610 C.3   113  LYS113      0.0035
     73  CD        18.3360    0.4860   58.1290 C.3   113  LYS113      0.0206
     74  CE        17.8840    1.6360   59.0050 C.3   113  LYS113      0.1093
     75  NZ        17.9960    2.9640   58.3360 N.3   113  LYS113     -0.1314
     76  N         14.3310    2.9090   52.8890 N.3   117  ASP117     -0.1239
     77  CA        14.1800    4.3190   53.2820 C.3   117  ASP117      0.1674
     78  C         13.9850    5.2580   52.0940 C.2   117  ASP117      0.2266
     79  O         13.1230    6.1290   52.1340 O.2   117  ASP117     -0.2867
     80  CB        15.4120    4.8020   54.0800 C.3   117  ASP117      0.1410
     81  CG        15.6330    4.0270   55.3830 C.2   117  ASP117      0.3668
     82  OD1       14.6380    3.6040   56.0140 O.co2 117  ASP117     -0.2456
     83  OD2       16.8120    3.8590   55.7780 O.co2 117  ASP117     -0.2456
     84  N         10.7720    4.8020   50.5690 N.3   120  ARG120     -0.1231
     85  CA         9.8200    5.3950   51.5090 C.3   120  ARG120      0.1694
     86  C          9.7080    6.9050   51.3020 C.2   120  ARG120      0.2592
     87  O          8.6030    7.4640   51.3380 O.2   120  ARG120     -0.2718
     88  CB        10.2310    5.0890   52.9650 C.3   120  ARG120      0.0321
     89  CG         9.3880    5.8640   54.0140 C.3   120  ARG120      0.0489
     90  CD         9.3840    5.2210   55.4110 C.3   120  ARG120      0.2205
     91  NE        10.7300    5.0770   55.9430 N.pl3 120  ARG120     -0.0865
     92  CZ        11.4230    6.0610   56.5030 C.cat 120  ARG120      0.5346
     93  NH1       10.8840    7.2670   56.6200 N.pl3 120  ARG120      0.1354
     94  NH2       12.6700    5.8480   56.9160 N.pl3 120  ARG120      0.1354
     95  N         10.8450    7.5700   51.0910 N.am  121  TYR121     -0.1976
     96  CA        10.8150    9.0120   50.8710 C.3   121  TYR121      0.1639
     97  C         10.1080    9.3230   49.5660 C.2   121  TYR121      0.2290
     98  O          9.3150   10.2810   49.4880 O.2   121  TYR121     -0.2864
     99  CB        12.2350    9.5800   50.8210 C.3   121  TYR121      0.0560
    100  CG        13.0650    9.3080   52.0450 C.ar  121  TYR121     -0.0198
    101  CD1       12.4910    9.2540   53.3220 C.ar  121  TYR121     -0.0009
    102  CD2       14.4350    9.0900   51.9280 C.ar  121  TYR121     -0.0009
    103  CE1       13.2790    8.9740   54.4510 C.ar  121  TYR121      0.0417
    104  CE2       15.2190    8.8180   53.0330 C.ar  121  TYR121      0.0417
    105  CZ        14.6440    8.7520   54.2840 C.ar  121  TYR121      0.1957
    106  OH        15.4450    8.3930   55.3280 O.3   121  TYR121     -0.2866
    107  N         22.5870   -2.8960   66.4590 N.3   158  PRO158     -0.2116
    108  CA        22.0710   -1.5950   66.0230 C.3   158  PRO158      0.1372
    109  C         21.5230   -1.4650   64.5940 C.2   158  PRO158      0.2244
    110  O         20.6110   -0.6730   64.3480 O.2   158  PRO158     -0.2868
    111  CB        23.2340   -0.6510   66.3250 C.3   158  PRO158      0.0268
    112  CG        24.4230   -1.5300   66.1780 C.3   158  PRO158      0.0207
    113  CD        23.9940   -2.7860   66.8710 C.3   158  PRO158      0.0892
    114  N         17.8090   -0.3850   63.8180 N.3   162  GLY162     -0.1225
    115  CA        17.5880    0.7680   62.9620 C.3   162  GLY162      0.1811
    116  C         16.6160    0.3500   61.8690 C.2   162  GLY162      0.2280
    117  O         15.6860    1.0860   61.5440 O.2   162  GLY162     -0.2866
    118  N         13.1990   -0.1080   63.3310 N.3   165  LEU165     -0.1231
    119  CA        12.6310    1.2140   63.6370 C.3   165  LEU165      0.1693
    120  C         12.0070    1.8200   62.3940 C.2   165  LEU165      0.2592
    121  O         10.8180    2.1230   62.3650 O.2   165  LEU165     -0.2718
    122  CB        13.7220    2.1660   64.1510 C.3   165  LEU165      0.0284
    123  CG        13.2750    3.6400   64.3010 C.3   165  LEU165      0.0019
    124  CD1       12.2920    3.7910   65.4720 C.3   165  LEU165      0.0001
    125  CD2       14.4830    4.5360   64.5150 C.3   165  LEU165      0.0001
    126  N         12.8200    1.9740   61.3530 N.am  166  ASN166     -0.1974
    127  CA        12.3470    2.5550   60.0980 C.3   166  ASN166      0.1688
    128  C         11.2270    1.7530   59.4290 C.2   166  ASN166      0.2292
    129  O         10.3310    2.3330   58.8150 O.2   166  ASN166     -0.2864
    130  CB        13.5550    2.7270   59.1770 C.3   166  ASN166      0.1181
    131  CG        14.4580    3.8480   59.6350 C.2   166  ASN166      0.2629
    132  OD1       14.4650    4.1960   60.8210 O.2   166  ASN166     -0.2716
    133  ND2       15.2330    4.4130   58.7130 N.am  166  ASN166     -0.0877
    134  N          8.0960    2.8620   61.0370 N.3   169  VAL169     -0.1245
    135  CA         7.6910    4.1860   60.5750 C.3   169  VAL169      0.1561
    136  C          6.9590    4.0150   59.2480 C.2   169  VAL169      0.2260
    137  O          5.9680    4.6880   58.9610 O.2   169  VAL169     -0.2867
    138  CB         8.9110    5.1060   60.3670 C.3   169  VAL169      0.0252
    139  CG1        8.4810    6.4010   59.6540 C.3   169  VAL169      0.0019
    140  CG2        9.5570    5.4170   61.7250 C.3   169  VAL169      0.0019
    141  N          3.3150    2.8080   59.9330 N.3   172  TYR172     -0.1227
    142  CA         2.4820    3.8910   60.4500 C.3   172  TYR172      0.1736
    143  C          2.2260    5.0530   59.4820 C.2   172  TYR172      0.2595
    144  O          1.0800    5.3620   59.1720 O.2   172  TYR172     -0.2718
    145  CB         3.1230    4.4470   61.7280 C.3   172  TYR172      0.0548
    146  CG         2.1410    5.2060   62.5900 C.ar  172  TYR172     -0.0200
    147  CD1        1.2030    4.5270   63.3660 C.ar  172  TYR172     -0.0009
    148  CD2        2.1030    6.5970   62.5840 C.ar  172  TYR172     -0.0009
    149  CE1        0.2450    5.2100   64.1150 C.ar  172  TYR172      0.0417
    150  CE2        1.1430    7.2960   63.3290 C.ar  172  TYR172      0.0417
    151  CZ         0.2170    6.5900   64.0910 C.ar  172  TYR172      0.1957
    152  OH        -0.7470    7.2580   64.8160 O.3   172  TYR172     -0.2866
    153  N          3.2910    5.6980   59.0090 N.am  173  GLU173     -0.1979
    154  CA         3.1520    6.8640   58.1310 C.3   173  GLU173      0.1602
    155  C          2.9620    6.6160   56.6290 C.2   173  GLU173      0.2287
    156  O          2.4980    7.5080   55.9290 O.2   173  GLU173     -0.2864
    157  CB         4.3690    7.7780   58.3460 C.3   173  GLU173      0.0415
    158  CG         4.4310    8.4720   59.7060 C.3   173  GLU173      0.1163
    159  CD         5.3620    9.6860   59.7150 C.2   173  GLU173      0.3649
    160  OE1        6.5720    9.5240   59.4380 O.co2 173  GLU173     -0.2457
    161  OE2        4.8780   10.8110   59.9950 O.co2 173  GLU173     -0.2457
    162  N         24.8190    3.0990   70.0750 N.3   206  ASP206     -0.1239
    163  CA        23.8900    3.0990   68.9430 C.3   206  ASP206      0.1674
    164  C         22.5540    2.4240   69.2300 C.2   206  ASP206      0.2266
    165  O         21.5000    3.0480   69.1060 O.2   206  ASP206     -0.2867
    166  CB        24.5580    2.4210   67.7460 C.3   206  ASP206      0.1410
    167  CG        25.5590    3.3210   67.0540 C.2   206  ASP206      0.3668
    168  OD1       25.1690    4.4490   66.6760 O.co2 206  ASP206     -0.2456
    169  OD2       26.7270    2.8980   66.8870 O.co2 206  ASP206     -0.2456
    170  N         20.3420    4.3840   71.6020 N.3   209  LEU209     -0.1231
    171  CA        19.6670    5.5390   71.0240 C.3   209  LEU209      0.1693
    172  C         18.4640    5.1580   70.1580 C.2   209  LEU209      0.2591
    173  O         17.4520    5.8610   70.1400 O.2   209  LEU209     -0.2718
    174  CB        20.6910    6.3230   70.2020 C.3   209  LEU209      0.0284
    175  CG        20.1450    7.4500   69.3200 C.3   209  LEU209      0.0019
    176  CD1       19.3990    8.4680   70.1650 C.3   209  LEU209      0.0001
    177  CD2       21.3020    8.1010   68.5810 C.3   209  LEU209      0.0001
    178  N         18.5780    4.0510   69.4340 N.am  210  ILE210     -0.1980
    179  CA        17.4850    3.5780   68.5850 C.3   210  ILE210      0.1595
    180  C         16.3420    3.0430   69.4520 C.2   210  ILE210      0.2287
    181  O         15.1540    3.2050   69.1330 O.2   210  ILE210     -0.2864
    182  CB        17.9820    2.4650   67.5960 C.3   210  ILE210      0.0276
    183  CG1       19.0480    3.0350   66.6560 C.3   210  ILE210      0.0022
    184  CG2       16.8220    1.9300   66.7660 C.3   210  ILE210      0.0022
    185  CD1       19.9470    1.9700   66.0310 C.3   210  ILE210      0.0001
    186  N         14.3790    5.8800   70.4360 N.3   213  LEU213     -0.1245
    187  CA        13.5580    6.3450   69.3190 C.3   213  LEU213      0.1561
    188  C         12.3180    5.4740   69.1710 C.2   213  LEU213      0.2260
    189  O         11.2330    5.9680   68.8600 O.2   213  LEU213     -0.2867
    190  CB        14.3790    6.3190   68.0240 C.3   213  LEU213      0.0270
    191  CG        15.6460    7.1760   67.9160 C.3   213  LEU213      0.0019
    192  CD1       16.2930    6.9690   66.5460 C.3   213  LEU213      0.0001
    193  CD2       15.3040    8.6300   68.1120 C.3   213  LEU213      0.0001
    194  N          9.8650    6.6800   71.8270 N.3   216  ASP216     -0.1225
    195  CA         9.2450    7.9440   71.4570 C.3   216  ASP216      0.1805
    196  C          8.1250    7.7100   70.4630 C.2   216  ASP216      0.2597
    197  O          7.0390    8.2680   70.6140 O.2   216  ASP216     -0.2718
    198  CB        10.2870    8.8860   70.8650 C.3   216  ASP216      0.1424
    199  CG        11.3200    9.3160   71.8750 C.2   216  ASP216      0.3668
    200  OD1       10.9610    9.4580   73.0640 O.co2 216  ASP216     -0.2456
    201  OD2       12.4880    9.5250   71.4860 O.co2 216  ASP216     -0.2456
    202  N          8.3820    6.8750   69.4540 N.am  217  ASN217     -0.1974
    203  CA         7.3510    6.5650   68.4650 C.3   217  ASN217      0.1688
    204  C          6.1420    5.8820   69.0980 C.2   217  ASN217      0.2292
    205  O          5.0100    6.2740   68.8420 O.2   217  ASN217     -0.2864
    206  CB         7.9410    5.6900   67.3430 C.3   217  ASN217      0.1181
    207  CG         8.8850    6.4680   66.4330 C.2   217  ASN217      0.2629
    208  OD1        8.7120    7.6670   66.2280 O.2   217  ASN217     -0.2716
    209  ND2        9.8780    5.7840   65.8750 N.am  217  ASN217     -0.0877
    210  N          4.1140    8.5790   70.7960 N.3   220  LEU220     -0.1231
    211  CA         3.4390    9.4340   69.8290 C.3   220  LEU220      0.1693
    212  C          2.3100    8.7030   69.0910 C.2   220  LEU220      0.2592
    213  O          1.2650    9.2880   68.8070 O.2   220  LEU220     -0.2718
    214  CB         4.4830    9.9440   68.8270 C.3   220  LEU220      0.0284
    215  CG         4.0270   10.8590   67.6780 C.3   220  LEU220      0.0019
    216  CD1        3.7440   12.2660   68.1970 C.3   220  LEU220      0.0001
    217  CD2        5.1120   10.9060   66.6040 C.3   220  LEU220      0.0001
    218  N          2.5190    7.4230   68.7930 N.am  221  TRP221     -0.1976
    219  CA         1.5280    6.6370   68.0630 C.3   221  TRP221      0.1640
    220  C          0.2910    6.2640   68.8780 C.2   221  TRP221      0.2290
    221  O         -0.8020    6.1070   68.3240 O.2   221  TRP221     -0.2864
    222  CB         2.2130    5.3760   67.5180 C.3   221  TRP221      0.0576
    223  CG         3.2830    5.6610   66.5040 C.ar  221  TRP221      0.0006
    224  CD1        3.5020    6.8430   65.8560 C.ar  221  TRP221      0.0946
    225  CD2        4.2460    4.7330   65.9790 C.ar  221  TRP221      0.0152
    226  NE1        4.5330    6.7120   64.9600 N.ar  221  TRP221     -0.2442
    227  CE2        5.0090    5.4270   65.0110 C.ar  221  TRP221      0.0810
    228  CE3        4.5350    3.3850   66.2290 C.ar  221  TRP221      0.0012
    229  CZ2        6.0490    4.8150   64.2860 C.ar  221  TRP221      0.0191
    230  CZ3        5.5710    2.7740   65.5060 C.ar  221  TRP221      0.0001
    231  CH2        6.3140    3.4950   64.5450 C.ar  221  TRP221      0.0015
@<TRIPOS>BOND
     1    98    97    2
     2    97    96    1
     3    84    85    1
     4    99    96    1
     5    99   100    1
     6    96    95    1
     7    95    86   am
     8    86    87    2
     9    86    85    1
    10    85    88    1
    11   102   100   ar
    12   102   104   ar
    13   100   101   ar
    14    78    79    2
    15    78    77    1
    16    39    40    1
    17    44    43    1
    18    44    45    1
    19    40    43    1
    20    40    41    1
    21    76    77    1
    22    88    89    1
    23   104   105   ar
    24    50    51    1
    25    77    80    1
    26   101   103   ar
    27    61    62    1
    28    45    46    1
    29    41    42    2
    30    67    68    1
    31    70    69    2
    32    69    68    1
    33    22    23    1
    34    89    90    1
    35    80    81    1
    36    33    34    2
    37    33    32    1
    38   105   103   ar
    39   105   106    1
    40    51    52    1
    41    51    54    1
    42    63    64    2
    43    63    62    1
    44     9    10    1
    45    62    65    1
    46    68    71    1
    47    46    47    2
    48    52    53    2
    49    10    11    1
    50    10    13    1
    51    23    24    1
    52    23    26    1
    53    24    25    2
    54    24    31   am
    55    31    32    1
    56    12    11    2
    57    81    83   ar
    58    81    82   ar
    59    90    91    1
    60    11    15   am
    61    55    54    1
    62    55    56    1
    63    32    35    1
    64    13    14    1
    65    17    18    2
    66    17    16    1
    67    47    48    1
    68    47    49    1
    69    35    36    1
    70   156   155    2
    71    91    92    2
    72    65    66    1
    73    71    72    1
    74    15    16    1
    75    26    27    1
    76    92    93    1
    77    92    94    1
    78   155   154    1
    79    56    57    1
    80    28    27    1
    81    28    29    1
    82    16    19    1
    83    72    73    1
    84     1     2    1
    85     3     4    2
    86     3     2    1
    87    57    58    2
    88    36    38   am
    89    36    37    2
    90    59    58    1
    91    58    60    1
    92     2     5    1
    93    19    20    1
    94    19    21    1
    95    29    30    1
    96    73    74    1
    97   154   157    1
    98   154   153    1
    99    75    74    1
   100   157   158    1
   101   133   131   am
   102   129   128    2
   103   137   136    2
   104   153   143   am
   105     5     6    1
   106   144   143    2
   107   130   131    1
   108   130   127    1
   109   136   135    1
   110   128   127    1
   111   160   159   ar
   112   143   142    1
   113   131   132    2
   114   139   138    1
   115   158   159    1
   116   159   161   ar
   117     6     7    2
   118     6     8   am
   119   141   142    1
   120   127   126    1
   121   138   135    1
   122   138   140    1
   123   142   145    1
   124   135   134    1
   125   126   120   am
   126   117   116    2
   127   145   146    1
   128   116   115    1
   129   121   120    2
   130   120   119    1
   131   148   146   ar
   132   148   150   ar
   133   146   147   ar
   134   115   114    1
   135   150   151   ar
   136   118   119    1
   137   147   149   ar
   138   119   122    1
   139   151   149   ar
   140   151   152    1
   141   122   123    1
   142   229   231   ar
   143   229   227   ar
   144   123   125    1
   145   123   124    1
   146   110   109    2
   147   231   230   ar
   148   109   108    1
   149   226   227   ar
   150   226   224   ar
   151   227   225   ar
   152   230   228   ar
   153   224   223   ar
   154   209   207   am
   155   225   228   ar
   156   225   223   ar
   157   108   111    1
   158   108   107    1
   159   185   183    1
   160   112   111    1
   161   112   113    1
   162   208   207    2
   163   207   206    1
   164   107   113    1
   165   223   222    1
   166   192   191    1
   167   217   215    1
   168   183   182    1
   169   168   167   ar
   170   184   182    1
   171   169   167   ar
   172   167   166    1
   173   206   203    1
   174   222   219    1
   175   182   179    1
   176   215   216    1
   177   215   214    1
   178   166   163    1
   179   191   190    1
   180   191   193    1
   181   190   187    1
   182   219   218    1
   183   219   220    1
   184   221   220    2
   185   203   204    1
   186   203   202    1
   187   177   175    1
   188   179   178    1
   189   179   180    1
   190   218   212   am
   191   213   212    2
   192   214   211    1
   193   205   204    2
   194   189   188    2
   195   163   164    1
   196   163   162    1
   197   212   211    1
   198   165   164    2
   199   181   180    2
   200   188   187    1
   201   187   186    1
   202   175   176    1
   203   175   174    1
   204   178   172   am
   205   202   196   am
   206   211   210    1
   207   173   172    2
   208   172   171    1
   209   174   171    1
   210   196   197    2
   211   196   195    1
   212   198   195    1
   213   198   199    1
   214   171   170    1
   215   195   194    1
   216   201   199   ar
   217   199   200   ar
