@<TRIPOS>MOLECULE
tmp/1yxdA00.pdb
 89 85 0 0 0
SMALL
GASTEIGER

@<TRIPOS>ATOM
      1  N        -36.5510   20.6610    2.6480 N.3    48  SER48      -0.1202
      2  CA       -37.6680   20.2750    3.4910 C.3    48  SER48       0.2020
      3  C        -38.6770   21.4050    3.6390 C.2    48  SER48       0.2618
      4  O        -39.8790   21.1610    3.6230 O.2    48  SER48      -0.2717
      5  CB       -37.1660   19.8600    4.8840 C.3    48  SER48       0.2103
      6  OG       -36.3860   20.9120    5.4290 O.3    48  SER48      -0.2182
      7  N        -38.1960   22.6410    3.7870 N.am   49  ALA49      -0.1979
      8  CA       -39.0950   23.7970    4.0140 C.3    49  ALA49       0.1597
      9  C        -40.1570   24.0050    2.9210 C.2    49  ALA49       0.2287
     10  O        -41.2880   24.3650    3.2250 O.2    49  ALA49      -0.2864
     11  CB       -38.2710   25.0950    4.1870 C.3    49  ALA49       0.0319
     12  N        -41.2120   21.7990    0.4340 N.3    51  LEU51      -0.1231
     13  CA       -42.0440   20.6500    0.1020 C.3    51  LEU51       0.1693
     14  C        -43.1760   20.5580    1.0740 C.2    51  LEU51       0.2592
     15  O        -42.9440   20.5940    2.3010 O.2    51  LEU51      -0.2718
     16  CB       -41.2040   19.3710    0.2090 C.3    51  LEU51       0.0284
     17  CG       -40.3610   18.8940   -0.9540 C.3    51  LEU51       0.0019
     18  CD1      -39.9650   19.9670   -1.8670 C.3    51  LEU51       0.0001
     19  CD2      -39.1390   18.0840   -0.4560 C.3    51  LEU51       0.0001
     20  N        -44.4060   20.4060    0.5750 N.am   52  ASN52      -0.1960
     21  CA       -45.5070   20.1620    1.4980 C.3    52  ASN52       0.1819
     22  C        -45.4020   18.7520    2.0790 C.2    52  ASN52       0.2621
     23  O        -44.5600   17.9610    1.6540 O.2    52  ASN52      -0.2715
     24  CB       -46.8770   20.4720    0.9160 C.3    52  ASN52       0.1195
     25  CG       -47.3010   19.4890   -0.1600 C.2    52  ASN52       0.2630
     26  OD1      -47.0640   18.2910   -0.0470 O.2    52  ASN52      -0.2716
     27  ND2      -47.9580   20.0060   -1.2020 N.am   52  ASN52      -0.0877
     28  N        -46.2090   18.4700    3.0940 N.am   53  HIS53      -0.1973
     29  CA       -46.0820   17.2070    3.8220 C.3    53  HIS53       0.1656
     30  C        -46.1780   15.9670    2.9460 C.2    53  HIS53       0.2291
     31  O        -45.4420   15.0220    3.1360 O.2    53  HIS53      -0.2864
     32  CB       -47.1130   17.1250    4.9560 C.3    53  HIS53       0.0771
     33  CG       -46.6590   17.8150    6.2050 C.ar   53  HIS53       0.0820
     34  ND1      -46.9130   19.1490    6.4550 N.ar   53  HIS53      -0.2267
     35  CD2      -45.9570   17.3560    7.2670 C.ar   53  HIS53       0.1154
     36  CE1      -46.3880   19.4730    7.6200 C.ar   53  HIS53       0.1986
     37  NE2      -45.7920   18.4100    8.1280 N.ar   53  HIS53      -0.2212
     38  N        -43.0840   15.8400    0.5280 N.3    56  HIS56      -0.1241
     39  CA       -41.9670   15.4260    1.4000 C.3    56  HIS56       0.1621
     40  C        -41.9840   13.9050    1.5710 C.2    56  HIS56       0.2264
     41  O        -40.9720   13.2140    1.3200 O.2    56  HIS56      -0.2867
     42  CB       -42.1780   16.1480    2.7440 C.3    56  HIS56       0.0745
     43  CG       -41.1350   15.8900    3.7910 C.ar   56  HIS56       0.0817
     44  ND1      -40.7600   16.8680    4.6930 N.ar   56  HIS56      -0.2268
     45  CD2      -40.4290   14.7760    4.1220 C.ar   56  HIS56       0.1154
     46  CE1      -39.8740   16.3630    5.5380 C.ar   56  HIS56       0.1986
     47  NE2      -39.6490   15.0990    5.2080 N.ar   56  HIS56      -0.2212
     48  N        -39.8980   19.4230   12.6280 N.3    79  ALA79      -0.1231
     49  CA       -40.9660   20.4140   12.4890 C.3    79  ALA79       0.1694
     50  C        -40.9210   21.3270   13.7190 C.2    79  ALA79       0.2592
     51  O        -40.4170   20.9370   14.7830 O.2    79  ALA79      -0.2718
     52  CB       -42.3390   19.7440   12.3480 C.3    79  ALA79       0.0304
     53  N        -41.4110   22.5440   13.5850 N.am   80  ASN80      -0.1974
     54  CA       -41.3960   23.4430   14.7280 C.3    80  ASN80       0.1688
     55  C        -42.6660   23.3930   15.5660 C.2    80  ASN80       0.2292
     56  O        -42.7820   24.1230   16.5490 O.2    80  ASN80      -0.2864
     57  CB       -41.0490   24.8740   14.2930 C.3    80  ASN80       0.1181
     58  CG       -42.1040   25.4950   13.3910 C.2    80  ASN80       0.2629
     59  OD1      -43.0040   24.8040   12.8950 O.2    80  ASN80      -0.2716
     60  ND2      -41.9960   26.8250   13.1730 N.am   80  ASN80      -0.0877
     61  N        -46.9500   18.3750   14.2700 N.3    84  GLU84      -0.1245
     62  CA       -46.5140   18.1580   12.8910 C.3    84  GLU84       0.1567
     63  C        -45.3820   17.1460   12.8050 C.2    84  GLU84       0.2260
     64  O        -45.3530   16.3310   11.8990 O.2    84  GLU84      -0.2867
     65  CB       -45.9970   19.4490   12.2460 C.3    84  GLU84       0.0388
     66  CG       -47.0360   20.3070   11.6000 C.3    84  GLU84       0.1160
     67  CD       -46.3740   21.4870   10.9080 C.2    84  GLU84       0.3649
     68  OE1      -46.3630   22.5580   11.5320 O.co2  84  GLU84      -0.2457
     69  OE2      -45.8070   21.3270    9.7700 O.co2  84  GLU84      -0.2457
     70  N        -45.4930   13.6410   10.7650 N.3    88  LEU88      -0.1245
     71  CA       -44.5000   13.3370    9.7480 C.3    88  LEU88       0.1561
     72  C        -43.7660   12.0410   10.0760 C.2    88  LEU88       0.2260
     73  O        -43.5970   11.1540    9.2160 O.2    88  LEU88      -0.2867
     74  CB       -43.5390   14.5190    9.6180 C.3    88  LEU88       0.0270
     75  CG       -42.6500   14.7780    8.4250 C.3    88  LEU88       0.0019
     76  CD1      -43.3120   14.5780    7.0720 C.3    88  LEU88       0.0001
     77  CD2      -42.0830   16.2180    8.5730 C.3    88  LEU88       0.0001
     78  N        -37.7220   25.6370   14.9430 N.3   106  TYR106     -0.1241
     79  CA       -37.2020   26.8950   14.4040 C.3   106  TYR106      0.1605
     80  C        -38.2780   27.9740   14.4980 C.2   106  TYR106      0.2264
     81  O        -39.4530   27.6690   14.5170 O.2   106  TYR106     -0.2867
     82  CB       -36.7810   26.7000   12.9500 C.3   106  TYR106      0.0534
     83  CG       -37.7010   25.7440   12.2030 C.ar  106  TYR106     -0.0201
     84  CD1      -38.8430   26.2070   11.5220 C.ar  106  TYR106     -0.0009
     85  CD2      -37.4410   24.3800   12.2020 C.ar  106  TYR106     -0.0009
     86  CE1      -39.7060   25.3150   10.8640 C.ar  106  TYR106      0.0417
     87  CE2      -38.2660   23.4910   11.5410 C.ar  106  TYR106      0.0417
     88  CZ       -39.4090   23.9580   10.8710 C.ar  106  TYR106      0.1957
     89  OH       -40.2370   23.0430   10.2370 O.3   106  TYR106     -0.2866
@<TRIPOS>BOND
     1    18    17    1
     2    27    25   am
     3    17    19    1
     4    17    16    1
     5    25    26    2
     6    25    24    1
     7    13    16    1
     8    13    12    1
     9    13    14    1
    10    38    39    1
    11    20    14   am
    12    20    21    1
    13    24    21    1
    14    14    15    2
    15    41    40    2
    16    39    40    1
    17    39    42    1
    18    21    22    1
    19    23    22    2
    20    22    28   am
    21     1     2    1
    22    42    43    1
    23     9    10    2
    24     9     8    1
    25    30    31    2
    26    30    29    1
    27    28    29    1
    28     2     3    1
    29     2     5    1
    30     4     3    2
    31     3     7   am
    32     7     8    1
    33    43    45   ar
    34    43    44   ar
    35    29    32    1
    36     8    11    1
    37    45    47   ar
    38    44    46   ar
    39     5     6    1
    40    32    33    1
    41    47    46   ar
    42    33    34   ar
    43    33    35   ar
    44    34    36   ar
    45    76    75    1
    46    35    37   ar
    47    36    37   ar
    48    75    77    1
    49    75    74    1
    50    73    72    2
    51    74    71    1
    52    71    72    1
    53    71    70    1
    54    69    67   ar
    55    89    88    1
    56    86    88   ar
    57    86    84   ar
    58    88    87   ar
    59    67    68   ar
    60    67    66    1
    61    84    83   ar
    62    87    85   ar
    63    66    65    1
    64    64    63    2
    65    85    83   ar
    66    83    82    1
    67    65    62    1
    68    52    49    1
    69    49    48    1
    70    49    50    1
    71    63    62    1
    72    62    61    1
    73    59    58    2
    74    82    79    1
    75    60    58   am
    76    58    57    1
    77    53    50   am
    78    53    54    1
    79    50    51    2
    80    57    54    1
    81    79    80    1
    82    79    78    1
    83    80    81    2
    84    54    55    1
    85    55    56    2
