@<TRIPOS>MOLECULE
tmp/1yxqA01.pdb
 180 174 0 0 0
SMALL
GASTEIGER

@<TRIPOS>ATOM
      1  N         -0.5080   -6.1990   26.5540 N.3    19  GLY19      -0.1210
      2  CA        -0.7070   -5.5690   25.2590 C.3    19  GLY19       0.1956
      3  C         -1.0360   -4.0770   25.3410 C.2    19  GLY19       0.2612
      4  O         -0.8380   -3.3460   24.3770 O.2    19  GLY19      -0.2717
      5  N         -1.5740   -3.6200   26.4700 N.am   20  ASP20      -0.1959
      6  CA        -1.7100   -2.1860   26.7150 C.3    20  ASP20       0.1840
      7  C         -0.3530   -1.5520   27.0000 C.2    20  ASP20       0.2622
      8  O          0.5340   -2.1570   27.6470 O.2    20  ASP20      -0.2715
      9  CB        -2.6110   -1.8830   27.9190 C.3    20  ASP20       0.1450
     10  CG        -4.0670   -2.1610   27.6840 C.2    20  ASP20       0.3671
     11  OD1       -4.5210   -2.4930   26.5590 O.co2  20  ASP20      -0.2456
     12  OD2       -4.8510   -2.0600   28.6360 O.co2  20  ASP20      -0.2456
     13  N         -0.1840   -0.3000   26.5790 N.am   21  ASP21      -0.1971
     14  CA         1.0980    0.3620   26.7890 C.3    21  ASP21       0.1709
     15  C          1.2160    1.0250   28.1520 C.2    21  ASP21       0.2293
     16  O          2.2490    1.6070   28.4650 O.2    21  ASP21      -0.2864
     17  CB         1.4540    1.3270   25.6460 C.3    21  ASP21       0.1436
     18  CG         0.6030    2.5760   25.6360 C.2    21  ASP21       0.3671
     19  OD1       -0.3650    2.6700   26.4320 O.co2  21  ASP21      -0.2456
     20  OD2        0.8230    3.5120   24.8390 O.co2  21  ASP21      -0.2456
     21  N          2.4840  -16.6060   36.1140 N.3   117  TYR117     -0.1241
     22  CA         3.9390  -16.5280   36.0150 C.3   117  TYR117      0.1605
     23  C          4.4160  -15.4470   36.9630 C.2   117  TYR117      0.2264
     24  O          3.6780  -14.4690   37.2020 O.2   117  TYR117     -0.2867
     25  CB         4.3200  -16.1580   34.5820 C.3   117  TYR117      0.0534
     26  CG         5.7730  -16.3240   34.2570 C.ar  117  TYR117     -0.0201
     27  CD1        6.3000  -17.5490   33.8240 C.ar  117  TYR117     -0.0009
     28  CD2        6.6340  -15.2470   34.3500 C.ar  117  TYR117     -0.0009
     29  CE1        7.6770  -17.6760   33.5110 C.ar  117  TYR117      0.0417
     30  CE2        7.9920  -15.3680   34.0470 C.ar  117  TYR117      0.0417
     31  CZ         8.5090  -16.5780   33.6380 C.ar  117  TYR117      0.1957
     32  OH         9.8710  -16.6240   33.3370 O.3   117  TYR117     -0.2866
     33  N         13.7150   -5.7830   30.0480 N.3   127  TYR127     -0.1227
     34  CA        12.9810   -6.2230   28.8580 C.3   127  TYR127      0.1736
     35  C         12.2460   -5.0590   28.1780 C.2   127  TYR127      0.2595
     36  O         12.1880   -4.9670   26.9440 O.2   127  TYR127     -0.2718
     37  CB        11.9380   -7.2620   29.2250 C.3   127  TYR127      0.0548
     38  CG        12.4170   -8.6010   29.7310 C.ar  127  TYR127     -0.0200
     39  CD1       13.7700   -8.9800   29.6920 C.ar  127  TYR127     -0.0009
     40  CD2       11.4930   -9.5090   30.2570 C.ar  127  TYR127     -0.0009
     41  CE1       14.1730  -10.2370   30.1830 C.ar  127  TYR127      0.0417
     42  CE2       11.8900  -10.7400   30.7410 C.ar  127  TYR127      0.0417
     43  CZ        13.2150  -11.1020   30.7070 C.ar  127  TYR127      0.1957
     44  OH        13.5480  -12.3490   31.1760 O.3   127  TYR127     -0.2866
     45  N         11.6720   -4.1910   29.0020 N.am  128  ALA128     -0.1966
     46  CA        10.9220   -3.0550   28.5080 C.3   128  ALA128      0.1728
     47  C         11.8430   -2.1070   27.7550 C.2   128  ALA128      0.2617
     48  O         11.3690   -1.3900   26.9080 O.2   128  ALA128     -0.2715
     49  CB        10.2150   -2.3110   29.6560 C.3   128  ALA128      0.0334
     50  N         13.1390   -2.0760   28.0930 N.am  129  SER129     -0.1936
     51  CA        14.1130   -1.3050   27.3110 C.3   129  SER129      0.2055
     52  C         14.6300   -2.0090   26.0670 C.2   129  SER129      0.2644
     53  O         15.5480   -1.4980   25.3960 O.2   129  SER129     -0.2714
     54  CB        15.3190   -0.9030   28.1700 C.3   129  SER129      0.2130
     55  OG        16.2260   -1.9960   28.3100 O.3   129  SER129     -0.2179
     56  N         14.0760   -3.1730   25.7620 N.am  130  GLY130     -0.1939
     57  CA        14.4720   -3.9480   24.5950 C.3   130  GLY130      0.2014
     58  C         15.7550   -4.7520   24.7260 C.2   130  GLY130      0.2639
     59  O         16.3970   -5.0460   23.7190 O.2   130  GLY130     -0.2714
     60  N         16.1090   -5.1260   25.9610 N.am  131  ARG131     -0.1963
     61  CA        17.3500   -5.8350   26.2580 C.3   131  ARG131      0.1729
     62  C         17.1160   -7.0850   27.0950 C.2   131  ARG131      0.2616
     63  O         16.1940   -7.1270   27.8940 O.2   131  ARG131     -0.2715
     64  CB        18.2910   -4.9380   27.0490 C.3   131  ARG131      0.0348
     65  CG        18.8180   -3.7320   26.3080 C.3   131  ARG131      0.0492
     66  CD        19.4770   -2.7150   27.2310 C.3   131  ARG131      0.2205
     67  NE        20.0760   -1.6320   26.4410 N.pl3 131  ARG131     -0.0865
     68  CZ        19.3880   -0.6090   25.9410 C.cat 131  ARG131      0.5346
     69  NH1       18.0910   -0.4710   26.1930 N.pl3 131  ARG131      0.1354
     70  NH2       20.0110    0.3220   25.2300 N.pl3 131  ARG131      0.1354
     71  N         17.9650   -8.0930   26.9000 N.am  132  THR132     -0.1951
     72  CA        18.0320   -9.2590   27.7780 C.3   132  THR132      0.1897
     73  C         19.3430   -9.3830   28.5270 C.2   132  THR132      0.2313
     74  O         19.4730  -10.2670   29.3970 O.2   132  THR132     -0.2863
     75  CB        17.8150  -10.5710   27.0130 C.3   132  THR132      0.1794
     76  OG1       18.6870  -10.6510   25.8790 O.3   132  THR132     -0.2208
     77  CG2       16.4380  -10.6350   26.4660 C.3   132  THR132      0.0378
     78  N         21.4810  -12.8540   29.3970 N.3   151  GLU151     -0.1231
     79  CA        20.6300  -13.6810   28.5420 C.3   151  GLU151      0.1699
     80  C         19.2560  -13.9530   29.1390 C.2   151  GLU151      0.2593
     81  O         18.7530  -15.0460   29.0900 O.2   151  GLU151     -0.2718
     82  CB        21.3740  -14.9690   28.2350 C.3   151  GLU151      0.0402
     83  CG        22.6230  -14.6490   27.4440 C.3   151  GLU151      0.1161
     84  CD        23.3390  -15.8900   26.9450 C.2   151  GLU151      0.3649
     85  OE1       23.0800  -16.9970   27.4510 O.co2 151  GLU151     -0.2457
     86  OE2       24.1610  -15.7140   26.0490 O.co2 151  GLU151     -0.2457
     87  N         18.6790  -12.9390   29.7620 N.am  152  GLY152     -0.1942
     88  CA        17.3060  -12.9860   30.1980 C.3   152  GLY152      0.2014
     89  C         17.1110  -13.2290   31.6760 C.2   152  GLY152      0.2638
     90  O         16.0250  -12.9760   32.1530 O.2   152  GLY152     -0.2714
     91  N         18.1670  -13.6310   32.3900 N.am  153  TYR153     -0.1973
     92  CA        18.0910  -14.0460   33.7890 C.3   153  TYR153      0.1639
     93  C         18.9490  -13.1740   34.7340 C.2   153  TYR153      0.2290
     94  O         20.1260  -12.8890   34.4650 O.2   153  TYR153     -0.2864
     95  CB        18.4730  -15.5330   33.9090 C.3   153  TYR153      0.0560
     96  CG        17.3690  -16.4400   33.3300 C.ar  153  TYR153     -0.0198
     97  CD1       16.0580  -16.3180   33.7790 C.ar  153  TYR153     -0.0009
     98  CD2       17.6290  -17.3470   32.3060 C.ar  153  TYR153     -0.0009
     99  CE1       15.0340  -17.0940   33.2650 C.ar  153  TYR153      0.0417
    100  CE2       16.6060  -18.1360   31.7680 C.ar  153  TYR153      0.0417
    101  CZ        15.3040  -17.9980   32.2600 C.ar  153  TYR153      0.1957
    102  OH        14.2400  -18.7370   31.7780 O.3   153  TYR153     -0.2866
    103  N         25.0420   -0.9780   29.2220 N.3   280  ASN280     -0.1240
    104  CA        23.6140   -1.2430   29.3040 C.3   280  ASN280      0.1653
    105  C         23.0790   -1.1080   30.7460 C.2   280  ASN280      0.2266
    106  O         22.4080   -2.0040   31.2620 O.2   280  ASN280     -0.2867
    107  CB        23.2860   -2.6330   28.7170 C.3   280  ASN280      0.1155
    108  CG        23.5500   -2.7300   27.2030 C.2   280  ASN280      0.2627
    109  OD1       22.7590   -2.2430   26.3960 O.2   280  ASN280     -0.2716
    110  ND2       24.6500   -3.3750   26.8250 N.am  280  ASN280     -0.0877
    111  N          5.2980   -2.3350   32.1200 N.3   325  ILE325     -0.1245
    112  CA         5.4030   -2.3780   30.6720 C.3   325  ILE325      0.1561
    113  C          6.1490   -3.6240   30.1980 C.2   325  ILE325      0.2260
    114  O          5.7430   -4.2820   29.2190 O.2   325  ILE325     -0.2867
    115  CB         6.0950   -1.0880   30.1360 C.3   325  ILE325      0.0252
    116  CG1        5.1360    0.1150   30.1900 C.3   325  ILE325      0.0019
    117  CG2        6.5870   -1.2630   28.6600 C.3   325  ILE325      0.0019
    118  CD1        5.8700    1.4720   30.0610 C.3   325  ILE325      0.0001
    119  N          3.8450   -6.4500   30.3440 N.3   328  SER328     -0.1202
    120  CA         2.8640   -6.3450   29.2730 C.3   328  SER328      0.2020
    121  C          3.4280   -6.8540   27.9450 C.2   328  SER328      0.2619
    122  O          2.7200   -7.5420   27.1910 O.2   328  SER328     -0.2717
    123  CB         2.3890   -4.9050   29.1460 C.3   328  SER328      0.2103
    124  OG         1.3860   -4.7690   28.1570 O.3   328  SER328     -0.2182
    125  N          4.6900   -6.5190   27.6650 N.am  329  ILE329     -0.1965
    126  CA         5.3620   -6.9800   26.4410 C.3   329  ILE329      0.1727
    127  C          5.5410   -8.4820   26.5090 C.2   329  ILE329      0.2616
    128  O          5.1600   -9.1980   25.5940 O.2   329  ILE329     -0.2715
    129  CB         6.7360   -6.2970   26.2860 C.3   329  ILE329      0.0290
    130  CG1        6.5600   -4.8050   25.9670 C.3   329  ILE329      0.0022
    131  CG2        7.6010   -7.0090   25.2120 C.3   329  ILE329      0.0023
    132  CD1        7.8160   -3.9800   26.2800 C.3   329  ILE329      0.0001
    133  N          6.1430   -8.9470   27.6120 N.am  330  LEU330     -0.1977
    134  CA         6.4440  -10.3590   27.8140 C.3   330  LEU330      0.1596
    135  C          5.1910  -11.2360   27.6850 C.2   330  LEU330      0.2287
    136  O          5.1720  -12.1970   26.9380 O.2   330  LEU330     -0.2864
    137  CB         7.1090  -10.5700   29.1880 C.3   330  LEU330      0.0297
    138  CG         7.4180  -12.0390   29.5810 C.3   330  LEU330      0.0022
    139  CD1        8.4240  -12.6340   28.6210 C.3   330  LEU330      0.0001
    140  CD2        7.9290  -12.1430   31.0050 C.3   330  LEU330      0.0001
    141  N          2.5580  -10.6680   26.2020 N.3   332  SER332     -0.1202
    142  CA         1.9930  -10.5550   24.8520 C.3   332  SER332      0.2020
    143  C          2.7160  -11.3840   23.7850 C.2   332  SER332      0.2618
    144  O          2.1820  -11.5430   22.7080 O.2   332  SER332     -0.2717
    145  CB         2.0190   -9.1020   24.3700 C.3   332  SER332      0.2103
    146  OG         1.1940   -8.2680   25.1490 O.3   332  SER332     -0.2182
    147  N          3.9120  -11.8970   24.0540 N.am  333  LEU333     -0.1979
    148  CA         4.6860  -12.5680   23.0160 C.3   333  LEU333      0.1596
    149  C          4.1760  -13.9770   22.7170 C.2   333  LEU333      0.2287
    150  O          3.9420  -14.7630   23.6280 O.2   333  LEU333     -0.2864
    151  CB         6.1480  -12.6950   23.4040 C.3   333  LEU333      0.0297
    152  CG         6.8950  -11.4140   23.7130 C.3   333  LEU333      0.0022
    153  CD1        8.2990  -11.7740   24.1600 C.3   333  LEU333      0.0001
    154  CD2        6.9170  -10.5020   22.4990 C.3   333  LEU333      0.0001
    155  N          5.9440  -16.3450   21.6910 N.3   335  THR335     -0.1203
    156  CA         6.9790  -17.2170   22.2780 C.3   335  THR335      0.1994
    157  C          6.9410  -17.3940   23.8090 C.2   335  THR335      0.2617
    158  O          7.6710  -18.2270   24.3410 O.2   335  THR335     -0.2717
    159  CB         8.3910  -16.6790   21.9140 C.3   335  THR335      0.1784
    160  OG1        8.4490  -15.2800   22.2310 O.3   335  THR335     -0.2211
    161  CG2        8.6900  -16.8820   20.4060 C.3   335  THR335      0.0376
    162  N          6.1560  -16.5830   24.5150 N.am  336  PHE336     -0.1975
    163  CA         5.9690  -16.7420   25.9690 C.3   336  PHE336      0.1639
    164  C          4.8400  -17.7030   26.3370 C.2   336  PHE336      0.2290
    165  O          4.7800  -18.1810   27.4670 O.2   336  PHE336     -0.2864
    166  CB         5.6620  -15.3760   26.5900 C.3   336  PHE336      0.0560
    167  CG         5.5130  -15.3860   28.0990 C.ar  336  PHE336     -0.0200
    168  CD1        6.6120  -15.6100   28.9360 C.ar  336  PHE336     -0.0042
    169  CD2        4.2780  -15.1460   28.6760 C.ar  336  PHE336     -0.0042
    170  CE1        6.4620  -15.5720   30.3200 C.ar  336  PHE336     -0.0003
    171  CE2        4.1260  -15.1290   30.0700 C.ar  336  PHE336     -0.0003
    172  CZ         5.2170  -15.3440   30.8770 C.ar  336  PHE336     -0.0000
    173  N          5.3960  -20.7460   28.3450 N.3   339  MET339     -0.1245
    174  CA         6.0560  -20.5580   29.6300 C.3   339  MET339      0.1570
    175  C          5.1130  -20.3160   30.8000 C.2   339  MET339      0.2261
    176  O          5.5380  -20.3630   31.9500 O.2   339  MET339     -0.2867
    177  CB         7.0650  -19.4100   29.5070 C.3   339  MET339      0.0387
    178  CG         7.9910  -19.6350   28.2930 C.3   339  MET339      0.0595
    179  SD         9.2180  -18.3650   28.1100 S.3   339  MET339     -0.1393
    180  CE        10.0570  -18.5790   29.6580 C.3   339  MET339      0.0692
@<TRIPOS>BOND
     1   161   159    1
     2   155   156    1
     3   159   160    1
     4   159   156    1
     5   156   157    1
     6   154   152    1
     7   144   143    2
     8   149   148    1
     9   149   150    2
    10   148   151    1
    11   148   147    1
    12   151   152    1
    13   152   153    1
    14    59    58    2
    15   143   147   am
    16   143   142    1
    17   157   158    2
    18   157   162   am
    19   145   142    1
    20   145   146    1
    21     4     3    2
    22   162   163    1
    23    57    58    1
    24    57    56    1
    25    58    60   am
    26    20    18   ar
    27   142   141    1
    28   131   129    1
    29    70    68    1
    30     2     3    1
    31     2     1    1
    32     3     5   am
    33    53    52    2
    34   128   127    2
    35    18    17    1
    36    18    19   ar
    37    17    14    1
    38    56    52   am
    39    76    75    1
    40    68    69    1
    41    68    67    2
    42    60    61    1
    43   130   132    1
    44   130   129    1
    45   163   164    1
    46   163   166    1
    47    86    84   ar
    48    52    51    1
    49    61    64    1
    50    61    62    1
    51   129   126    1
    52    65    64    1
    53    65    66    1
    54   164   165    2
    55   109   108    2
    56    67    66    1
    57   126   127    1
    58   126   125    1
    59    77    75    1
    60     5     6    1
    61   127   133   am
    62    11    10   ar
    63    13    14    1
    64    13     7   am
    65   166   167    1
    66     6     7    1
    67     6     9    1
    68    14    15    1
    69   110   108   am
    70    71    62   am
    71    71    72    1
    72    48    47    2
    73   136   135    2
    74    36    35    2
    75    84    83    1
    76    84    85   ar
    77     7     8    2
    78    75    72    1
    79    62    63    2
    80   122   121    2
    81   108   107    1
    82    51    50    1
    83    51    54    1
    84    83    82    1
    85   133   134    1
    86   125   121   am
    87    10     9    1
    88    10    12   ar
    89   135   134    1
    90    47    50   am
    91    47    46    1
    92    72    73    1
    93   134   137    1
    94   121   120    1
    95   167   169   ar
    96   167   168   ar
    97   179   178    1
    98   179   180    1
    99    15    16    2
   100   124   123    1
   101    54    55    1
   102    35    34    1
   103    35    45   am
   104    82    79    1
   105   178   177    1
   106   173   174    1
   107    46    45    1
   108    46    49    1
   109    73    74    2
   110    79    80    1
   111    79    78    1
   112   139   138    1
   113   117   115    1
   114   169   171   ar
   115   107   104    1
   116    34    37    1
   117    34    33    1
   118   168   170   ar
   119    81    80    2
   120    80    87   am
   121   123   120    1
   122   137   138    1
   123   114   113    2
   124   103   104    1
   125    37    38    1
   126   120   119    1
   127   104   105    1
   128   177   174    1
   129   138   140    1
   130   174   175    1
   131    39    38   ar
   132    39    41   ar
   133    38    40   ar
   134    87    88    1
   135   118   116    1
   136   171   172   ar
   137   115   116    1
   138   115   112    1
   139    41    43   ar
   140   113   112    1
   141    88    89    1
   142    40    42   ar
   143   170   172   ar
   144   112   111    1
   145    43    42   ar
   146    43    44    1
   147   105   106    2
   148   175   176    2
   149    89    90    2
   150    89    91   am
   151   100   101   ar
   152   100    98   ar
   153   102   101    1
   154   101    99   ar
   155    98    96   ar
   156    91    92    1
   157    99    97   ar
   158    96    97   ar
   159    96    95    1
   160    32    31    1
   161    29    31   ar
   162    29    27   ar
   163    31    30   ar
   164    92    95    1
   165    92    93    1
   166    27    26   ar
   167    30    28   ar
   168    26    28   ar
   169    26    25    1
   170    94    93    2
   171    25    22    1
   172    22    21    1
   173    22    23    1
   174    23    24    2
