@<TRIPOS>MOLECULE
tmp/1yxqB01.pdb
 168 160 0 0 0
SMALL
GASTEIGER

@<TRIPOS>ATOM
      1  N         22.3100   -2.8090   15.8750 N.3    18  GLY18      -0.1210
      2  CA        22.4970   -3.0090   17.2940 C.3    18  GLY18       0.1956
      3  C         22.7710   -1.7170   18.0570 C.2    18  GLY18       0.2612
      4  O         22.5250   -1.6810   19.2710 O.2    18  GLY18      -0.2717
      5  N         23.2640   -0.6720   17.3720 N.am   19  ASP19      -0.1959
      6  CA        23.4380    0.6520   17.9860 C.3    19  ASP19       0.1840
      7  C         22.0610    1.2980   18.0270 C.2    19  ASP19       0.2622
      8  O         21.2040    1.0270   17.1600 O.2    19  ASP19      -0.2715
      9  CB        24.3780    1.5660   17.1870 C.3    19  ASP19       0.1450
     10  CG        25.8500    1.1570   17.2570 C.2    19  ASP19       0.3671
     11  OD1       26.2200    0.2700   18.0270 O.co2  19  ASP19      -0.2456
     12  OD2       26.7150    1.6840   16.5320 O.co2  19  ASP19      -0.2456
     13  N         21.8570    2.1730   19.0090 N.am   20  ASP20      -0.1971
     14  CA        20.5830    2.8510   19.2030 C.3    20  ASP20       0.1709
     15  C         20.4980    4.1850   18.4510 C.2    20  ASP20       0.2293
     16  O         19.4580    4.8540   18.4790 O.2    20  ASP20      -0.2864
     17  CB        20.2480    3.0080   20.6870 C.3    20  ASP20       0.1436
     18  CG        21.1210    4.0390   21.4170 C.2    20  ASP20       0.3671
     19  OD1       22.0230    4.6630   20.8170 O.co2  20  ASP20      -0.2456
     20  OD2       20.9460    4.2880   22.6230 O.co2  20  ASP20      -0.2456
     21  N         19.6680   -6.0740    2.1700 N.3   117  TYR117     -0.1241
     22  CA        18.2150   -6.0710    2.2070 C.3   117  TYR117      0.1605
     23  C         17.7440   -4.6410    2.0020 C.2   117  TYR117      0.2264
     24  O         18.4910   -3.7070    2.2460 O.2   117  TYR117     -0.2867
     25  CB        17.7370   -6.6420    3.5380 C.3   117  TYR117      0.0534
     26  CG        16.2530   -6.9200    3.6330 C.ar  117  TYR117     -0.0201
     27  CD1       15.3660   -5.9220    4.0570 C.ar  117  TYR117     -0.0009
     28  CD2       15.7410   -8.1900    3.3660 C.ar  117  TYR117     -0.0009
     29  CE1       13.9850   -6.1770    4.1980 C.ar  117  TYR117      0.0417
     30  CE2       14.3610   -8.4610    3.4960 C.ar  117  TYR117      0.0417
     31  CZ        13.4880   -7.4410    3.9090 C.ar  117  TYR117      0.1957
     32  OH        12.1210   -7.6740    4.0240 O.3   117  TYR117     -0.2866
     33  N          8.0600   -0.2800   12.9370 N.3   127  TYR127     -0.1227
     34  CA         8.7650   -1.3230   13.6940 C.3   127  TYR127      0.1736
     35  C          9.4780   -0.7380   14.8980 C.2   127  TYR127      0.2595
     36  O          9.5020   -1.3310   15.9970 O.2   127  TYR127     -0.2718
     37  CB         9.8200   -1.9850   12.8120 C.3   127  TYR127      0.0548
     38  CG         9.3590   -2.7990   11.6150 C.ar  127  TYR127     -0.0200
     39  CD1       10.2970   -3.2110   10.6750 C.ar  127  TYR127     -0.0009
     40  CD2        8.0280   -3.1690   11.4180 C.ar  127  TYR127     -0.0009
     41  CE1        9.9480   -3.9650    9.5820 C.ar  127  TYR127      0.0417
     42  CE2        7.6630   -3.9330   10.3000 C.ar  127  TYR127      0.0417
     43  CZ         8.6470   -4.3210    9.3870 C.ar  127  TYR127      0.1957
     44  OH         8.3800   -5.0590    8.2710 O.3   127  TYR127     -0.2866
     45  N         10.0820    0.4340   14.7040 N.am  128  ALA128     -0.1966
     46  CA        10.7990    1.0900   15.7960 C.3   128  ALA128      0.1728
     47  C          9.8920    1.4520   16.9750 C.2   128  ALA128      0.2617
     48  O         10.3550    1.4970   18.1000 O.2   128  ALA128     -0.2715
     49  CB        11.5270    2.3210   15.2840 C.3   128  ALA128      0.0334
     50  N          8.5990    1.6520   16.7300 N.am  129  SER129     -0.1936
     51  CA         7.6250    1.8660   17.8190 C.3   129  SER129      0.2055
     52  C          7.0970    0.5470   18.4290 C.2   129  SER129      0.2644
     53  O          6.2900    0.5640   19.3620 O.2   129  SER129     -0.2714
     54  CB         6.4420    2.6950   17.3080 C.3   129  SER129      0.2130
     55  OG         5.6930    1.9480   16.3410 O.3   129  SER129     -0.2179
     56  N          7.5520   -0.5910   17.9020 N.am  130  GLY130     -0.1939
     57  CA         7.1760   -1.8980   18.4250 C.3   130  GLY130      0.2014
     58  C          5.8850   -2.4560   17.8290 C.2   130  GLY130      0.2639
     59  O          5.2430   -3.3080   18.4430 O.2   130  GLY130     -0.2714
     60  N          5.5090   -1.9640   16.6450 N.am  131  ARG131     -0.1963
     61  CA         4.2430   -2.3320   15.9890 C.3   131  ARG131      0.1729
     62  C          4.4650   -2.8890   14.6030 C.2   131  ARG131      0.2616
     63  O          5.4560   -2.5730   13.9670 O.2   131  ARG131     -0.2715
     64  CB         3.3670   -1.0940   15.7810 C.3   131  ARG131      0.0348
     65  CG         2.5900   -0.6900   16.9630 C.3   131  ARG131      0.0492
     66  CD         2.2900    0.7780   16.9930 C.3   131  ARG131      0.2205
     67  NE         3.2170    1.3960   17.9210 N.pl3 131  ARG131     -0.0865
     68  CZ         2.9230    1.8320   19.1300 C.cat 131  ARG131      0.5346
     69  NH1        1.6940    1.7550   19.6310 N.pl3 131  ARG131      0.1354
     70  NH2        3.8960    2.3560   19.8560 N.pl3 131  ARG131      0.1354
     71  N          3.5150   -3.6870   14.1270 N.am  132  THR132     -0.1951
     72  CA         3.4290   -4.0230   12.7040 C.3   132  THR132      0.1897
     73  C          2.1390   -3.5170   12.0560 C.2   132  THR132      0.2313
     74  O          1.9480   -3.6590   10.8510 O.2   132  THR132     -0.2863
     75  CB         3.6280   -5.5310   12.4780 C.3   132  THR132      0.1794
     76  OG1        2.7180   -6.2870   13.2740 O.3   132  THR132     -0.2208
     77  CG2        5.0160   -5.9620   13.0060 C.3   132  THR132      0.0378
     78  N          2.6370   -5.9680    9.0220 N.3   152  GLY152     -0.1225
     79  CA         3.9250   -5.8920    8.3570 C.3   152  GLY152      0.1811
     80  C          3.8690   -5.3330    6.9400 C.2   152  GLY152      0.2280
     81  O          4.8700   -4.8100    6.4580 O.2   152  GLY152     -0.2866
     82  N         -3.0300    3.7990   16.2290 N.3   280  ASN280     -0.1240
     83  CA        -1.5890    3.5530   16.0830 C.3   280  ASN280      0.1653
     84  C         -0.9790    4.4710   15.0260 C.2   280  ASN280      0.2266
     85  O         -0.3610    4.0080   14.0770 O.2   280  ASN280     -0.2867
     86  CB        -1.3210    2.0640   15.7660 C.3   280  ASN280      0.1155
     87  CG        -1.7300    1.1320   16.9050 C.2   280  ASN280      0.2627
     88  OD1       -0.9510    0.8910   17.8420 O.2   280  ASN280     -0.2716
     89  ND2       -2.9550    0.6190   16.8440 N.am  280  ASN280     -0.0877
     90  N         12.8210   10.0480   19.8780 N.3   318  GLU318     -0.1245
     91  CA        13.8790    9.6770   18.9350 C.3   318  GLU318      0.1567
     92  C         13.4330    9.6820   17.4600 C.2   318  GLU318      0.2260
     93  O         14.1600    9.1870   16.5960 O.2   318  GLU318     -0.2867
     94  CB        14.4280    8.2880   19.3070 C.3   318  GLU318      0.0388
     95  CG        13.5040    7.1090   18.9850 C.3   318  GLU318      0.1160
     96  CD        12.5210    6.7270   20.1070 C.2   318  GLU318      0.3649
     97  OE1       11.8120    5.7040   19.9060 O.co2 318  GLU318     -0.2457
     98  OE2       12.4600    7.4100   21.1760 O.co2 318  GLU318     -0.2457
     99  N         16.6240    3.6280   13.3380 N.3   325  ILE325     -0.1245
    100  CA        16.5090    2.7480   14.5030 C.3   325  ILE325      0.1561
    101  C         15.7250    1.4670   14.1610 C.2   325  ILE325      0.2260
    102  O         16.1160    0.3780   14.5360 O.2   325  ILE325     -0.2867
    103  CB        15.8770    3.4900   15.6970 C.3   325  ILE325      0.0252
    104  CG1       16.8580    4.5550   16.2400 C.3   325  ILE325      0.0019
    105  CG2       15.5250    2.5190   16.7880 C.3   325  ILE325      0.0019
    106  CD1       16.2580    5.5350   17.2340 C.3   325  ILE325      0.0001
    107  N         18.0440   -0.8020   12.5370 N.3   328  SER328     -0.1202
    108  CA        19.0130   -1.3620   13.4770 C.3   328  SER328      0.2020
    109  C         18.4050   -2.5340   14.2550 C.2   328  SER328      0.2619
    110  O         19.0610   -3.5470   14.4910 O.2   328  SER328     -0.2717
    111  CB        19.4870   -0.2730   14.4290 C.3   328  SER328      0.2103
    112  OG        20.4560   -0.7550   15.3240 O.3   328  SER328     -0.2182
    113  N         17.1350   -2.3780   14.6380 N.am  329  ILE329     -0.1965
    114  CA        16.3900   -3.4260   15.3110 C.3   329  ILE329      0.1727
    115  C         16.2520   -4.6270   14.3910 C.2   329  ILE329      0.2616
    116  O         16.6510   -5.7430   14.7430 O.2   329  ILE329     -0.2715
    117  CB        14.9830   -2.9300   15.7290 C.3   329  ILE329      0.0290
    118  CG1       15.0990   -1.8660   16.8330 C.3   329  ILE329      0.0022
    119  CG2       14.1480   -4.0940   16.2370 C.3   329  ILE329      0.0023
    120  CD1       13.8080   -1.0600   17.0400 C.3   329  ILE329      0.0001
    121  N         15.7150   -4.3780   13.1960 N.am  330  LEU330     -0.1977
    122  CA        15.3760   -5.4410   12.2700 C.3   330  LEU330      0.1596
    123  C         16.5980   -6.2790   11.9010 C.2   330  LEU330      0.2287
    124  O         16.5460   -7.5070   11.9430 O.2   330  LEU330     -0.2864
    125  CB        14.7320   -4.8430   11.0100 C.3   330  LEU330      0.0297
    126  CG        14.4650   -5.7850    9.8370 C.3   330  LEU330      0.0022
    127  CD1       13.4910   -6.8710   10.2170 C.3   330  LEU330      0.0001
    128  CD2       13.9240   -4.9640    8.6600 C.3   330  LEU330      0.0001
    129  N         19.2130   -6.7490   13.5190 N.3   332  SER332     -0.1202
    130  CA        19.7950   -7.4160   14.6930 C.3   332  SER332      0.2020
    131  C         19.0370   -8.6490   15.1120 C.2   332  SER332      0.2618
    132  O         19.5200   -9.4000   15.9570 O.2   332  SER332     -0.2717
    133  CB        19.8270   -6.4750   15.9190 C.3   332  SER332      0.2103
    134  OG        20.5810   -5.3020   15.6680 O.3   332  SER332     -0.2182
    135  N         17.8250   -8.8280   14.5910 N.am  333  LEU333     -0.1979
    136  CA        16.9720   -9.9280   15.0470 C.3   333  LEU333      0.1596
    137  C         17.5150  -11.2440   14.5300 C.2   333  LEU333      0.2287
    138  O         17.8920  -11.3460   13.3700 O.2   333  LEU333     -0.2864
    139  CB        15.5360   -9.7760   14.5290 C.3   333  LEU333      0.0297
    140  CG        14.6870   -8.6450   15.0900 C.3   333  LEU333      0.0022
    141  CD1       13.3180   -8.6740   14.4500 C.3   333  LEU333      0.0001
    142  CD2       14.5710   -8.7750   16.6030 C.3   333  LEU333      0.0001
    143  N         15.7630  -13.8150   14.0600 N.3   335  THR335     -0.1203
    144  CA        14.7170  -14.2610   13.1400 C.3   335  THR335      0.1994
    145  C         14.7780  -13.5700   11.7840 C.2   335  THR335      0.2617
    146  O         14.1250  -13.9960   10.8560 O.2   335  THR335     -0.2717
    147  CB        13.3140  -14.0330   13.7490 C.3   335  THR335      0.1784
    148  OG1       13.1740  -12.6560   14.1440 O.3   335  THR335     -0.2211
    149  CG2       13.1340  -14.8360   15.0470 C.3   335  THR335      0.0376
    150  N         15.5280  -12.4800   11.6860 N.am  336  PHE336     -0.1975
    151  CA        15.7570  -11.8130   10.4150 C.3   336  PHE336      0.1639
    152  C         16.9080  -12.4240    9.6220 C.2   336  PHE336      0.2290
    153  O         17.0160  -12.1950    8.4250 O.2   336  PHE336     -0.2864
    154  CB        16.0580  -10.3310   10.6560 C.3   336  PHE336      0.0560
    155  CG        16.1870   -9.5310    9.4010 C.ar  336  PHE336     -0.0200
    156  CD1       15.0700   -9.2740    8.6150 C.ar  336  PHE336     -0.0042
    157  CD2       17.4280   -9.0580    8.9850 C.ar  336  PHE336     -0.0042
    158  CE1       15.1870   -8.5480    7.4270 C.ar  336  PHE336     -0.0003
    159  CE2       17.5530   -8.3270    7.8200 C.ar  336  PHE336     -0.0003
    160  CZ        16.4260   -8.0690    7.0340 C.ar  336  PHE336     -0.0000
    161  N         16.6920  -13.9640    6.2710 N.3   339  MET339     -0.1245
    162  CA        15.9400  -13.1500    5.3050 C.3   339  MET339      0.1570
    163  C         16.7980  -12.2500    4.4240 C.2   339  MET339      0.2261
    164  O         16.3000  -11.6900    3.4390 O.2   339  MET339     -0.2867
    165  CB        14.9150  -12.2800    6.0390 C.3   339  MET339      0.0387
    166  CG        13.8210  -13.0850    6.7320 C.3   339  MET339      0.0595
    167  SD        12.5350  -12.0330    7.4270 S.3   339  MET339     -0.1393
    168  CE        11.6940  -11.4620    5.9640 C.3   339  MET339      0.0692
@<TRIPOS>BOND
     1    23    22    1
     2    23    24    2
     3    21    22    1
     4    22    25    1
     5    28    30   ar
     6    28    26   ar
     7   164   163    2
     8    30    31   ar
     9    25    26    1
    10    26    27   ar
    11    31    32    1
    12    31    29   ar
    13    27    29   ar
    14   163   162    1
    15   162   165    1
    16   162   161    1
    17   168   167    1
    18   165   166    1
    19    81    80    2
    20   166   167    1
    21    80    79    1
    22   160   158   ar
    23   160   159   ar
    24   158   156   ar
    25   159   157   ar
    26    44    43    1
    27    79    78    1
    28   153   152    2
    29   156   155   ar
    30   128   126    1
    31   157   155   ar
    32    43    41   ar
    33    43    42   ar
    34   155   154    1
    35    41    39   ar
    36   152   151    1
    37   126   127    1
    38   126   125    1
    39    42    40   ar
    40   151   154    1
    41   151   150    1
    42    39    38   ar
    43    74    73    2
    44   146   145    2
    45   125   122    1
    46    40    38   ar
    47    38    37    1
    48   150   145   am
    49   145   144    1
    50   123   124    2
    51   123   122    1
    52    73    72    1
    53   122   121    1
    54    75    72    1
    55    75    77    1
    56    75    76    1
    57   107   108    1
    58    72    71    1
    59    37    34    1
    60    33    34    1
    61   144   147    1
    62   144   143    1
    63   121   115   am
    64    99   100    1
    65   138   137    2
    66   108   109    1
    67   108   111    1
    68   129   130    1
    69    34    35    1
    70   147   148    1
    71   147   149    1
    72    63    62    2
    73    85    84    2
    74    71    62   am
    75   101   100    1
    76   101   102    2
    77   109   110    2
    78   109   113   am
    79   115   116    2
    80   115   114    1
    81   111   112    1
    82   141   140    1
    83   100   103    1
    84   139   136    1
    85   139   140    1
    86   137   136    1
    87   135   136    1
    88   135   131   am
    89    62    61    1
    90   113   114    1
    91   130   131    1
    92   130   133    1
    93    45    35   am
    94    45    46    1
    95    35    36    2
    96    84    83    1
    97   140   142    1
    98   131   132    2
    99    49    46    1
   100   114   117    1
   101   134   133    1
   102   103   104    1
   103   103   105    1
   104   117   119    1
   105   117   118    1
   106    86    83    1
   107    86    87    1
   108    64    61    1
   109    64    65    1
   110    46    47    1
   111     1     2    1
   112    61    60    1
   113    83    82    1
   114   104   106    1
   115    55    54    1
   116    12    10   ar
   117    93    92    2
   118    60    58   am
   119    50    47   am
   120    50    51    1
   121   118   120    1
   122    89    87   am
   123    87    88    2
   124    65    66    1
   125    47    48    2
   126    66    67    1
   127     8     7    2
   128     9    10    1
   129     9     6    1
   130    10    11   ar
   131     2     3    1
   132    54    51    1
   133     5     6    1
   134     5     3   am
   135    92    91    1
   136    51    52    1
   137    58    57    1
   138    58    59    2
   139    56    57    1
   140    56    52   am
   141    67    68    2
   142     6     7    1
   143     7    13   am
   144     3     4    2
   145    52    53    2
   146    15    16    2
   147    15    14    1
   148    91    94    1
   149    91    90    1
   150    95    94    1
   151    95    96    1
   152    13    14    1
   153    68    69    1
   154    68    70    1
   155    14    17    1
   156    97    96   ar
   157    96    98   ar
   158    17    18    1
   159    19    18   ar
   160    18    20   ar
