@<TRIPOS>MOLECULE
tmp/1yxtA00.pdb
 175 161 0 0 0
SMALL
GASTEIGER

@<TRIPOS>ATOM
      1  N         78.7270   37.9840    4.5200 N.3    12  LEU12      -0.1231
      2  CA        77.3190   37.7720    4.8430 C.3    12  LEU12       0.1693
      3  C         77.0210   36.3960    5.4310 C.2    12  LEU12       0.2593
      4  O         76.0700   36.2340    6.1850 O.2    12  LEU12      -0.2718
      5  CB        76.4670   37.9560    3.5880 C.3    12  LEU12       0.0284
      6  CG        76.5030   39.3450    2.9770 C.3    12  LEU12       0.0019
      7  CD1       75.7960   39.3510    1.6180 C.3    12  LEU12       0.0001
      8  CD2       75.8620   40.3090    3.9570 C.3    12  LEU12       0.0001
      9  N         77.8030   35.3940    5.0550 N.am   13  GLY13      -0.1942
     10  CA        77.5870   34.0410    5.5490 C.3    13  GLY13       0.2014
     11  C         78.6260   33.0480    5.0330 C.2    13  GLY13       0.2639
     12  O         79.2220   33.2600    3.9760 O.2    13  GLY13      -0.2714
     13  N         78.8690   32.0000    5.8140 N.am   14  SER14      -0.1949
     14  CA        79.7770   30.9180    5.4450 C.3    14  SER14       0.1924
     15  C         79.2690   29.6490    6.1610 C.2    14  SER14       0.2314
     16  O         78.1040   29.5830    6.5710 O.2    14  SER14      -0.2863
     17  CB        81.2230   31.2700    5.8240 C.3    14  SER14       0.2116
     18  OG        81.3350   31.6350    7.1870 O.3    14  SER14      -0.2180
     19  N         78.2900   26.7670    5.0820 N.3    16  GLY16      -0.1210
     20  CA        77.7820   25.7920    4.1230 C.3    16  GLY16       0.1956
     21  C         78.9700   25.5380    3.1940 C.2    16  GLY16       0.2612
     22  O         80.1370   25.6290    3.6310 O.2    16  GLY16      -0.2717
     23  N         78.7210   25.2790    1.9120 N.am   17  PHE17      -0.1962
     24  CA        79.8350   25.0640    0.9730 C.3    17  PHE17       0.1771
     25  C         80.6770   26.3300    0.6730 C.2    17  PHE17       0.2620
     26  O         81.8770   26.2000    0.4220 O.2    17  PHE17      -0.2715
     27  CB        79.3490   24.4570   -0.3560 C.3    17  PHE17       0.0574
     28  CG        78.7680   23.0680   -0.2190 C.ar   17  PHE17      -0.0200
     29  CD1       77.3980   22.8560   -0.3810 C.ar   17  PHE17      -0.0042
     30  CD2       79.5920   21.9780    0.0860 C.ar   17  PHE17      -0.0042
     31  CE1       76.8460   21.5710   -0.2590 C.ar   17  PHE17      -0.0003
     32  CE2       79.0510   20.6840    0.2210 C.ar   17  PHE17      -0.0003
     33  CZ        77.6660   20.4850    0.0480 C.ar   17  PHE17      -0.0000
     34  N         80.0750   27.5290    0.6890 N.am   18  GLY18      -0.1954
     35  CA        80.8000   28.7580    0.3390 C.3    18  GLY18       0.1869
     36  C         80.8180   29.9200    1.3370 C.2    18  GLY18       0.2309
     37  O         80.1310   29.8760    2.3510 O.2    18  GLY18      -0.2863
     38  N         80.1600   33.9280    1.3610 N.3    20  VAL20      -0.1245
     39  CA        79.4520   34.9090    0.5760 C.3    20  VAL20       0.1561
     40  C         79.6520   36.3120    1.1450 C.2    20  VAL20       0.2260
     41  O         79.4310   36.5450    2.3370 O.2    20  VAL20      -0.2867
     42  CB        77.9520   34.5640    0.5570 C.3    20  VAL20       0.0252
     43  CG1       77.2000   35.4810   -0.3490 C.3    20  VAL20       0.0019
     44  CG2       77.7450   33.1430    0.0900 C.3    20  VAL20       0.0019
     45  N         76.2810   40.0200   -4.5410 N.3    33  ALA33      -0.1245
     46  CA        76.7910   39.0980   -3.5380 C.3    33  ALA33       0.1562
     47  C         77.8790   38.3040   -4.2440 C.2    33  ALA33       0.2260
     48  O         77.7090   37.8990   -5.3970 O.2    33  ALA33      -0.2867
     49  CB        75.6970   38.1860   -3.0310 C.3    33  ALA33       0.0290
     50  N         80.1220   35.0260   -3.9950 N.3    35  LYS35      -0.1245
     51  CA        80.2230   33.7010   -3.3880 C.3    35  LYS35       0.1561
     52  C         81.4540   32.9350   -3.8660 C.2    35  LYS35       0.2260
     53  O         81.6720   32.7300   -5.0630 O.2    35  LYS35      -0.2867
     54  CB        78.9510   32.9030   -3.6710 C.3    35  LYS35       0.0271
     55  CG        78.9760   31.4950   -3.0920 C.3    35  LYS35       0.0035
     56  CD        77.6250   30.8470   -3.1560 C.3    35  LYS35       0.0206
     57  CE        77.5910   29.4800   -2.4810 C.3    35  LYS35       0.1093
     58  NZ        76.1890   28.9750   -2.4560 N.3    35  LYS35      -0.1314
     59  N         67.3250   33.7340   -7.2220 N.3    72  ILE72      -0.1245
     60  CA        68.4680   34.6020   -7.3340 C.3    72  ILE72       0.1561
     61  C         69.0940   34.5120   -8.7240 C.2    72  ILE72       0.2260
     62  O         69.2530   33.4320   -9.2750 O.2    72  ILE72      -0.2867
     63  CB        69.5000   34.1790   -6.2990 C.3    72  ILE72       0.0252
     64  CG1       70.3660   35.3660   -5.9340 C.3    72  ILE72       0.0019
     65  CG2       70.2820   32.9380   -6.8090 C.3    72  ILE72       0.0019
     66  CD1       69.5500   36.4330   -5.1820 C.3    72  ILE72       0.0001
     67  N         76.3810   37.2040   -7.7620 N.3    88  LEU88      -0.1231
     68  CA        74.9360   37.0970   -7.6350 C.3    88  LEU88       0.1693
     69  C         74.2700   38.4280   -7.3750 C.2    88  LEU88       0.2592
     70  O         74.8510   39.3170   -6.7590 O.2    88  LEU88      -0.2718
     71  CB        74.5980   36.1850   -6.4590 C.3    88  LEU88       0.0284
     72  CG        75.2500   34.8050   -6.5140 C.3    88  LEU88       0.0019
     73  CD1       75.1080   34.1070   -5.1860 C.3    88  LEU88       0.0001
     74  CD2       74.5960   33.9820   -7.5860 C.3    88  LEU88       0.0001
     75  N         73.0380   38.5690   -7.8360 N.am   89  GLU89      -0.1966
     76  CA        72.2740   39.7730   -7.5520 C.3    89  GLU89       0.1733
     77  C         72.0640   39.8060   -6.0470 C.2    89  GLU89       0.2616
     78  O         72.0320   38.7650   -5.3980 O.2    89  GLU89      -0.2715
     79  CB        70.9340   39.7710   -8.3160 C.3    89  GLU89       0.0429
     80  CG        69.7380   39.3310   -7.5170 C.3    89  GLU89       0.1163
     81  CD        68.4910   39.1100   -8.3680 C.2    89  GLU89       0.3649
     82  OE1       67.8480   40.0980   -8.7590 O.co2  89  GLU89      -0.2457
     83  OE2       68.1500   37.9460   -8.6370 O.co2  89  GLU89      -0.2457
     84  N         71.9410   41.0030   -5.4930 N.am   90  ARG90      -0.1977
     85  CA        71.7140   41.1560   -4.0610 C.3    90  ARG90       0.1597
     86  C         70.6280   42.2120   -3.8070 C.2    90  ARG90       0.2287
     87  O         70.8070   43.3560   -4.1430 O.2    90  ARG90      -0.2864
     88  CB        73.0210   41.5870   -3.3750 C.3    90  ARG90       0.0334
     89  CG        72.8770   41.9550   -1.9120 C.3    90  ARG90       0.0492
     90  CD        74.2010   42.2190   -1.1800 C.3    90  ARG90       0.2205
     91  NE        74.9840   43.3340   -1.7470 N.pl3  90  ARG90      -0.0865
     92  CZ        74.8400   44.6140   -1.4180 C.cat  90  ARG90       0.5346
     93  NH1       73.9480   44.9910   -0.5150 N.pl3  90  ARG90       0.1354
     94  NH2       75.6070   45.5320   -1.9800 N.pl3  90  ARG90       0.1354
     95  N         67.7580   43.3940    2.6910 N.3    94  VAL94      -0.1245
     96  CA        67.4510   41.9780    2.6200 C.3    94  VAL94       0.1561
     97  C         67.7890   41.3050    3.9330 C.2    94  VAL94       0.2260
     98  O         68.6110   41.7840    4.7060 O.2    94  VAL94      -0.2867
     99  CB        68.2730   41.3050    1.4890 C.3    94  VAL94       0.0252
    100  CG1       69.7660   41.1820    1.8880 C.3    94  VAL94       0.0019
    101  CG2       67.7210   39.9670    1.1400 C.3    94  VAL94       0.0019
    102  N         67.7950   36.9390    5.3160 N.3    96  ASP96      -0.1239
    103  CA        67.4440   35.5620    5.0590 C.3    96  ASP96       0.1674
    104  C         66.3830   35.1020    6.0870 C.2    96  ASP96       0.2266
    105  O         66.2390   35.6940    7.1540 O.2    96  ASP96      -0.2867
    106  CB        68.6960   34.6690    4.8910 C.3    96  ASP96       0.1410
    107  CG        69.2860   34.1720    6.1850 C.2    96  ASP96       0.3668
    108  OD1       68.5600   34.0620    7.1890 O.co2  96  ASP96      -0.2456
    109  OD2       70.4980   33.8200    6.2610 O.co2  96  ASP96      -0.2456
    110  N         67.3000   34.2570    9.8170 N.3    99  ASP99      -0.1239
    111  CA        67.4960   35.4200   10.6980 C.3    99  ASP99       0.1674
    112  C         66.1540   36.0380   11.0110 C.2    99  ASP99       0.2266
    113  O         65.8930   36.4100   12.1330 O.2    99  ASP99      -0.2867
    114  CB        68.3850   36.4810   10.0430 C.3    99  ASP99       0.1410
    115  CG        69.8500   36.0580    9.9450 C.2    99  ASP99       0.3668
    116  OD1       70.2840   35.1340   10.6730 O.co2  99  ASP99      -0.2456
    117  OD2       70.6530   36.6200    9.1670 O.co2  99  ASP99      -0.2456
    118  N         68.1390   21.5720   -1.0820 N.3   135  ASP135     -0.1239
    119  CA        68.5350   22.1490    0.2110 C.3   135  ASP135      0.1674
    120  C         67.6010   23.2980    0.5910 C.2   135  ASP135      0.2266
    121  O         68.0380   24.3120    1.0830 O.2   135  ASP135     -0.2867
    122  CB        70.0100   22.6090    0.1730 C.3   135  ASP135      0.1410
    123  CG        70.6520   22.7660    1.5730 C.2   135  ASP135      0.3668
    124  OD1       70.1590   22.1660    2.5630 O.co2 135  ASP135     -0.2456
    125  OD2       71.6900   23.4700    1.7560 O.co2 135  ASP135     -0.2456
    126  N         65.4440   25.4380    2.7190 N.3   137  LYS137     -0.1245
    127  CA        65.4560   25.7010    4.1520 C.3   137  LYS137      0.1561
    128  C         65.5730   27.2070    4.3480 C.2   137  LYS137      0.2260
    129  O         66.0010   27.9430    3.4290 O.2   137  LYS137     -0.2867
    130  CB        66.6260   25.0040    4.8520 C.3   137  LYS137      0.0271
    131  CG        67.9940   25.5600    4.4630 C.3   137  LYS137      0.0035
    132  CD        69.1270   24.5740    4.7090 C.3   137  LYS137      0.0206
    133  CE        69.5590   24.5260    6.1510 C.3   137  LYS137      0.1093
    134  NZ        70.9950   24.0480    6.2510 N.3   137  LYS137     -0.1314
    135  N         67.6580   29.3490    5.8270 N.3   139  GLU139     -0.1231
    136  CA        68.9360   30.0250    5.5050 C.3   139  GLU139      0.1699
    137  C         69.1110   30.2610    4.0310 C.2   139  GLU139      0.2592
    138  O         69.9110   31.1200    3.6470 O.2   139  GLU139     -0.2718
    139  CB        70.1340   29.1090    5.7770 C.3   139  GLU139      0.0402
    140  CG        70.5560   28.9070    7.1760 C.3   139  GLU139      0.1161
    141  CD        71.8330   28.0920    7.2220 C.2   139  GLU139      0.3649
    142  OE1       72.6870   28.4860    7.9970 O.co2 139  GLU139     -0.2457
    143  OE2       71.9900   27.1100    6.4530 O.co2 139  GLU139     -0.2457
    144  N         68.4770   29.4060    3.2290 N.am  140  ASN140     -0.1974
    145  CA        68.5940   29.4710    1.7600 C.3   140  ASN140      0.1688
    146  C         67.4530   30.2040    1.0630 C.2   140  ASN140      0.2292
    147  O         67.2010   30.0180   -0.1170 O.2   140  ASN140     -0.2864
    148  CB        68.7940   28.0930    1.1820 C.3   140  ASN140      0.1181
    149  CG        70.1300   27.5130    1.5660 C.2   140  ASN140      0.2629
    150  OD1       71.0440   28.2640    1.8580 O.2   140  ASN140     -0.2716
    151  ND2       70.2400   26.1850    1.6180 N.am  140  ASN140     -0.0877
    152  N         65.9520   34.2470    0.7750 N.3   142  LEU142     -0.1245
    153  CA        66.1590   35.6800    1.0130 C.3   142  LEU142      0.1561
    154  C         64.8340   36.3950    0.9740 C.2   142  LEU142      0.2260
    155  O         63.9670   36.0190    0.1750 O.2   142  LEU142     -0.2867
    156  CB        67.0460   36.3010   -0.0890 C.3   142  LEU142      0.0270
    157  CG        68.5110   35.8560   -0.1240 C.3   142  LEU142      0.0019
    158  CD1       69.2940   36.6590   -1.1250 C.3   142  LEU142      0.0001
    159  CD2       69.1600   35.9660    1.2280 C.3   142  LEU142      0.0001
    160  N         68.0740   30.8100   -2.8940 N.3   153  ILE153     -0.1231
    161  CA        69.5000   30.8140   -3.1670 C.3   153  ILE153      0.1692
    162  C         70.1120   29.4820   -2.8060 C.2   153  ILE153      0.2592
    163  O         69.4470   28.6160   -2.2550 O.2   153  ILE153     -0.2718
    164  CB        70.2320   31.8800   -2.3210 C.3   153  ILE153      0.0266
    165  CG1       69.8760   31.7010   -0.8410 C.3   153  ILE153      0.0019
    166  CG2       69.9140   33.2750   -2.8170 C.3   153  ILE153      0.0020
    167  CD1       70.7950   32.4020    0.1120 C.3   153  ILE153      0.0001
    168  N         71.4120   29.3670   -3.0810 N.am  154  ASP154     -0.1974
    169  CA        72.2340   28.2210   -2.7200 C.3   154  ASP154      0.1709
    170  C         71.8690   26.9460   -3.4300 C.2   154  ASP154      0.2293
    171  O         71.1890   26.1050   -2.9000 O.2   154  ASP154     -0.2864
    172  CB        72.2610   28.0260   -1.2020 C.3   154  ASP154      0.1436
    173  CG        73.2910   27.0140   -0.7620 C.2   154  ASP154      0.3671
    174  OD1       73.9360   26.4020   -1.6320 O.co2 154  ASP154     -0.2456
    175  OD2       73.5220   26.7380    0.4270 O.co2 154  ASP154     -0.2456
@<TRIPOS>BOND
     1    62    61    2
     2    82    81   ar
     3    61    60    1
     4    83    81   ar
     5    81    80    1
     6    79    76    1
     7    79    80    1
     8    75    76    1
     9    75    69   am
    10    67    68    1
    11    68    69    1
    12    68    71    1
    13    74    72    1
    14    76    77    1
    15    69    70    2
    16    60    59    1
    17    60    63    1
    18    65    63    1
    19    72    71    1
    20    72    73    1
    21    63    64    1
    22    77    84   am
    23    77    78    2
    24    64    66    1
    25    84    85    1
    26    48    47    2
    27    53    52    2
    28    45    46    1
    29    47    46    1
    30    87    86    2
    31    85    86    1
    32    85    88    1
    33    50    51    1
    34    52    51    1
    35    54    51    1
    36    54    55    1
    37    46    49    1
    38   170   171    2
    39   170   169    1
    40    88    89    1
    41   161   160    1
    42   161   162    1
    43   161   164    1
    44    56    55    1
    45    56    57    1
    46   168   162   am
    47   168   169    1
    48   166   164    1
    49   162   163    2
    50   169   172    1
    51    57    58    1
    52   164   165    1
    53    94    92    1
    54    89    90    1
    55    91    92    2
    56    91    90    1
    57   174   173   ar
    58    92    93    1
    59   172   173    1
    60   158   157    1
    61   118   119    1
    62   165   167    1
    63   173   175   ar
    64    29    31   ar
    65    29    28   ar
    66    27    28    1
    67    27    24    1
    68    43    42    1
    69    31    33   ar
    70    28    30   ar
    71   157   156    1
    72   157   159    1
    73   147   146    2
    74   156   153    1
    75    33    32   ar
    76    30    32   ar
    77    44    42    1
    78   122   119    1
    79   122   123    1
    80   155   154    2
    81   119   120    1
    82    35    34    1
    83    35    36    1
    84    26    25    2
    85    42    39    1
    86    39    40    1
    87    39    38    1
    88   120   121    2
    89    25    34   am
    90    25    24    1
    91   152   153    1
    92    24    23    1
    93   154   153    1
    94   146   145    1
    95   101    99    1
    96    40    41    2
    97   148   149    1
    98   148   145    1
    99    36    37    2
   100    99   100    1
   101    99    96    1
   102   149   151   am
   103   149   150    2
   104   123   125   ar
   105   123   124   ar
   106     7     6    1
   107   145   144    1
   108    23    21   am
   109    96    95    1
   110    96    97    1
   111   126   127    1
   112     6     5    1
   113     6     8    1
   114    21    22    2
   115    21    20    1
   116   144   137   am
   117   129   128    2
   118     5     2    1
   119   138   137    2
   120    97    98    2
   121    12    11    2
   122   137   136    1
   123    20    19    1
   124   127   128    1
   125   127   130    1
   126   131   132    1
   127   131   130    1
   128     1     2    1
   129   132   133    1
   130     2     3    1
   131   106   103    1
   132   106   107    1
   133    11    10    1
   134    11    13   am
   135     9     3   am
   136     9    10    1
   137   103   102    1
   138   103   104    1
   139     3     4    2
   140    14    13    1
   141    14    17    1
   142    14    15    1
   143   136   139    1
   144   136   135    1
   145   139   140    1
   146    17    18    1
   147   104   105    2
   148   133   134    1
   149    15    16    2
   150   107   109   ar
   151   107   108   ar
   152   143   141   ar
   153   140   141    1
   154   141   142   ar
   155   117   115   ar
   156   110   111    1
   157   115   114    1
   158   115   116   ar
   159   114   111    1
   160   111   112    1
   161   112   113    2
