@<TRIPOS>MOLECULE
tmp/1yxuB00.pdb
 169 157 0 0 0
SMALL
GASTEIGER

@<TRIPOS>ATOM
      1  N         32.5240   45.2890    7.8520 N.3    12  LEU12      -0.1231
      2  CA        31.1380   45.5170    7.4880 C.3    12  LEU12       0.1696
      3  C         30.9730   46.8040    6.6770 C.2    12  LEU12       0.2631
      4  O         30.2140   46.8350    5.7160 O.2    12  LEU12      -0.2714
      5  CB        30.2540   45.5350    8.7400 C.3    12  LEU12       0.0284
      6  CG        30.1990   44.2100    9.5260 C.3    12  LEU12       0.0019
      7  CD1       29.3910   44.3450   10.8130 C.3    12  LEU12       0.0001
      8  CD2       29.6140   43.0730    8.6950 C.3    12  LEU12       0.0001
      9  N         31.7070   47.8500    7.0380 N.am   13  GLY13      -0.1732
     10  CA        31.6180   49.1290    6.3400 C.2    13  GLY13       0.1340
     11  C         32.5870   50.2090    6.8240 C.2    13  GLY13       0.2521
     12  O         33.2580   50.0470    7.8560 O.2    13  GLY13      -0.2816
     13  N         31.8370   57.4820    9.8800 N.3    17  PHE17      -0.1241
     14  CA        31.5860   56.8110   11.1630 C.3    17  PHE17       0.1605
     15  C         32.7340   55.8630   11.6090 C.2    17  PHE17       0.2264
     16  O         32.5940   55.1420   12.6120 O.2    17  PHE17      -0.2867
     17  CB        30.2870   56.0020   11.0450 C.3    17  PHE17       0.0534
     18  CG        30.2350   55.0760    9.8190 C.ar   17  PHE17      -0.0203
     19  CD1       30.7220   53.7680    9.8880 C.ar   17  PHE17      -0.0042
     20  CD2       29.6840   55.5230    8.6010 C.ar   17  PHE17      -0.0042
     21  CE1       30.6750   52.9290    8.7690 C.ar   17  PHE17      -0.0003
     22  CE2       29.6330   54.6790    7.4720 C.ar   17  PHE17      -0.0003
     23  CZ        30.1290   53.3880    7.5590 C.ar   17  PHE17      -0.0000
     24  N         33.7860   49.7760   10.8270 N.3    20  VAL20      -0.1245
     25  CA        33.0710   48.7770   11.6300 C.3    20  VAL20       0.1561
     26  C         33.2980   47.3640   11.0830 C.2    20  VAL20       0.2260
     27  O         33.1110   47.1440    9.8960 O.2    20  VAL20      -0.2867
     28  CB        31.5830   49.0880   11.5970 C.3    20  VAL20       0.0252
     29  CG1       30.7750   48.0680   12.4250 C.3    20  VAL20       0.0019
     30  CG2       31.3560   50.5060   12.0770 C.3    20  VAL20       0.0019
     31  N         29.6040   44.2900   16.7710 N.3    33  ALA33      -0.1245
     32  CA        30.1690   45.1380   15.7380 C.3    33  ALA33       0.1562
     33  C         31.2550   45.9150   16.4560 C.2    33  ALA33       0.2260
     34  O         31.0560   46.3590   17.5750 O.2    33  ALA33      -0.2867
     35  CB        29.1330   46.0610   15.1650 C.3    33  ALA33       0.0290
     36  N         33.6700   49.0880   16.1510 N.3    35  LYS35      -0.1245
     37  CA        33.8980   50.3650   15.4970 C.3    35  LYS35       0.1561
     38  C         35.1860   51.0460   15.9710 C.2    35  LYS35       0.2260
     39  O         35.3040   51.4420   17.1290 O.2    35  LYS35      -0.2867
     40  CB        32.7200   51.2850   15.7920 C.3    35  LYS35       0.0271
     41  CG        32.6650   52.5220   14.9230 C.3    35  LYS35       0.0035
     42  CD        31.2200   52.9480   14.6420 C.3    35  LYS35       0.0206
     43  CE        30.7950   54.1650   15.4170 C.3    35  LYS35       0.1093
     44  NZ        30.6910   55.3710   14.5350 N.3    35  LYS35      -0.1314
     45  N         30.3200   60.5260   21.0040 N.3    57  GLU57      -0.1245
     46  CA        29.5690   59.3230   20.6530 C.3    57  GLU57       0.1567
     47  C         29.4710   58.3270   21.8140 C.2    57  GLU57       0.2260
     48  O         28.4440   57.7000   21.9940 O.2    57  GLU57      -0.2867
     49  CB        30.2070   58.6630   19.4270 C.3    57  GLU57       0.0388
     50  CG        29.4150   57.4910   18.8590 C.3    57  GLU57       0.1160
     51  CD        29.9940   56.9530   17.5580 C.2    57  GLU57       0.3649
     52  OE1       31.1490   57.2570   17.2710 O.co2  57  GLU57      -0.2457
     53  OE2       29.2850   56.2280   16.8170 O.co2  57  GLU57      -0.2457
     54  N         25.9840   57.3430   23.6130 N.3    61  LEU61      -0.1245
     55  CA        25.6130   55.9310   23.6070 C.3    61  LEU61       0.1561
     56  C         25.3740   55.4300   25.0260 C.2    61  LEU61       0.2260
     57  O         24.4400   54.6880   25.2790 O.2    61  LEU61      -0.2867
     58  CB        26.6910   55.0840   22.9160 C.3    61  LEU61       0.0270
     59  CG        26.7000   55.0840   21.3820 C.3    61  LEU61       0.0019
     60  CD1       27.9720   54.4280   20.8370 C.3    61  LEU61       0.0001
     61  CD2       25.4860   54.3700   20.8580 C.3    61  LEU61       0.0001
     62  N         20.8550   50.8660   19.1550 N.3    72  ILE72      -0.1245
     63  CA        21.9900   49.9780   19.2300 C.3    72  ILE72       0.1561
     64  C         22.7260   50.1860   20.5430 C.2    72  ILE72       0.2260
     65  O         23.0290   51.3080   20.8920 O.2    72  ILE72      -0.2867
     66  CB        22.9120   50.3140   18.0590 C.3    72  ILE72       0.0252
     67  CG1       23.6970   49.0820   17.6560 C.3    72  ILE72       0.0019
     68  CG2       23.7970   51.5930   18.3450 C.3    72  ILE72       0.0019
     69  CD1       22.8580   48.1830   16.7450 C.3    72  ILE72       0.0001
     70  N         29.8030   47.3100   19.8190 N.3    88  LEU88      -0.1231
     71  CA        28.3830   47.4970   19.6900 C.3    88  LEU88       0.1693
     72  C         27.6680   46.1760   19.5230 C.2    88  LEU88       0.2592
     73  O         28.2570   45.1520   19.1500 O.2    88  LEU88      -0.2718
     74  CB        28.1180   48.4290   18.5200 C.3    88  LEU88       0.0284
     75  CG        28.6700   49.8300   18.8600 C.3    88  LEU88       0.0019
     76  CD1       29.2170   50.5590   17.6630 C.3    88  LEU88       0.0001
     77  CD2       27.6020   50.6760   19.5820 C.3    88  LEU88       0.0001
     78  N         26.3870   46.1750   19.8350 N.am   89  GLU89      -0.1966
     79  CA        25.6290   44.9550   19.6650 C.3    89  GLU89       0.1733
     80  C         25.3890   44.7960   18.1540 C.2    89  GLU89       0.2616
     81  O         25.3450   45.7810   17.4140 O.2    89  GLU89      -0.2715
     82  CB        24.3560   44.9690   20.5320 C.3    89  GLU89       0.0429
     83  CG        23.0350   45.1280   19.8170 C.3    89  GLU89       0.1163
     84  CD        21.8930   45.2820   20.8060 C.2    89  GLU89       0.3649
     85  OE1       21.3580   44.2590   21.2830 O.co2  89  GLU89      -0.2457
     86  OE2       21.5460   46.4350   21.1180 O.co2  89  GLU89      -0.2457
     87  N         25.3040   43.5580   17.6910 N.am   90  ARG90      -0.1964
     88  CA        25.0650   43.2970   16.2790 C.3    90  ARG90       0.1714
     89  C         23.9780   42.2380   16.0770 C.2    90  ARG90       0.2458
     90  O         24.2260   41.0510   16.2780 O.2    90  ARG90      -0.2730
     91  CB        26.3570   42.8320   15.5870 C.3    90  ARG90       0.0347
     92  CG        26.1710   42.3720   14.1280 C.3    90  ARG90       0.0492
     93  CD        27.4540   42.0580   13.3990 C.3    90  ARG90       0.2205
     94  NE        28.1130   40.8810   13.9580 N.pl3  90  ARG90      -0.0865
     95  CZ        28.0720   39.6540   13.4450 C.cat  90  ARG90       0.5346
     96  NH1       27.3780   39.3920   12.3400 N.pl3  90  ARG90       0.1354
     97  NH2       28.7300   38.6750   14.0540 N.pl3  90  ARG90       0.1354
     98  N         22.7780   42.6590   15.6940 N.am   91  PRO91      -0.2716
     99  CA        21.7270   41.7000   15.3320 C.3    91  PRO91       0.1536
    100  C         22.1130   40.9770   14.0430 C.2    91  PRO91       0.2598
    101  O         22.9650   41.4780   13.2890 O.2    91  PRO91      -0.2715
    102  CB        20.5050   42.5810   15.1030 C.3    91  PRO91       0.0310
    103  CG        21.0600   43.9370   14.7820 C.3    91  PRO91       0.0237
    104  CD        22.3050   44.0520   15.6120 C.3    91  PRO91       0.0939
    105  N         21.4830   39.8310   13.7970 N.am   92  GLU92      -0.1978
    106  CA        21.7900   38.9940   12.6400 C.3    92  GLU92       0.1602
    107  C         20.5990   38.0700   12.3080 C.2    92  GLU92       0.2287
    108  O         20.0790   37.4160   13.2040 O.2    92  GLU92      -0.2864
    109  CB        23.0200   38.1460   12.9840 C.3    92  GLU92       0.0415
    110  CG        23.6610   37.3880   11.8260 C.3    92  GLU92       0.1163
    111  CD        24.3230   38.3080   10.8040 C.2    92  GLU92       0.3649
    112  OE1       24.4780   39.5430   11.0790 O.co2  92  GLU92      -0.2457
    113  OE2       24.6830   37.7790    9.7220 O.co2  92  GLU92      -0.2457
    114  N         20.8590   41.0650    9.2480 N.3    94  VAL94      -0.1245
    115  CA        20.6000   42.4770    9.2620 C.3    94  VAL94       0.1561
    116  C         20.8980   43.1540    7.9280 C.2    94  VAL94       0.2260
    117  O         21.7980   42.7590    7.1860 O.2    94  VAL94      -0.2867
    118  CB        21.4490   43.1120   10.3950 C.3    94  VAL94       0.0252
    119  CG1       22.9030   43.2980    9.9670 C.3    94  VAL94       0.0019
    120  CG2       20.8470   44.3810   10.8740 C.3    94  VAL94       0.0019
    121  N         20.6800   47.4500    6.4780 N.3    96  ASP96      -0.1239
    122  CA        20.3050   48.8320    6.7960 C.3    96  ASP96       0.1674
    123  C         19.2050   49.2720    5.8370 C.2    96  ASP96       0.2266
    124  O         19.0830   48.7170    4.7510 O.2    96  ASP96      -0.2867
    125  CB        21.5070   49.7970    6.8720 C.3    96  ASP96       0.1410
    126  CG        22.0810   50.1570    5.5190 C.2    96  ASP96       0.3668
    127  OD1       21.3040   50.5540    4.6440 O.co2  96  ASP96      -0.2456
    128  OD2       23.3050   50.0870    5.2320 O.co2  96  ASP96      -0.2456
    129  N         20.3230   55.2220    6.1600 N.3   139  GLU139     -0.1231
    130  CA        21.6460   54.6140    6.3860 C.3   139  GLU139      0.1699
    131  C         21.9660   54.3370    7.8490 C.2   139  GLU139      0.2592
    132  O         22.8360   53.5280    8.1570 O.2   139  GLU139     -0.2718
    133  CB        22.7590   55.5540    5.8880 C.3   139  GLU139      0.0402
    134  CG        22.7000   55.9490    4.4230 C.3   139  GLU139      0.1161
    135  CD        23.7480   56.9920    4.0670 C.2   139  GLU139      0.3649
    136  OE1       23.3910   58.1820    3.9160 O.co2 139  GLU139     -0.2457
    137  OE2       24.9260   56.6180    3.9600 O.co2 139  GLU139     -0.2457
    138  N         21.3210   55.0740    8.7410 N.am  140  ASN140     -0.1974
    139  CA        21.5630   54.9450   10.1660 C.3   140  ASN140      0.1688
    140  C         20.4770   54.1720   10.8880 C.2   140  ASN140      0.2292
    141  O         20.3260   54.2930   12.0890 O.2   140  ASN140     -0.2864
    142  CB        21.7790   56.3470   10.7660 C.3   140  ASN140      0.1181
    143  CG        23.1090   56.9580   10.3260 C.2   140  ASN140      0.2629
    144  OD1       23.9970   56.2240    9.9070 O.2   140  ASN140     -0.2716
    145  ND2       23.2450   58.2900   10.3920 N.am  140  ASN140     -0.0877
    146  N         19.1050   50.1840   11.1870 N.3   142  LEU142     -0.1245
    147  CA        19.3180   48.7890   10.8390 C.3   142  LEU142      0.1561
    148  C         18.0330   48.0110   11.0000 C.2   142  LEU142      0.2260
    149  O         17.2480   48.3050   11.8870 O.2   142  LEU142     -0.2867
    150  CB        20.3510   48.1330   11.7620 C.3   142  LEU142      0.0270
    151  CG        21.7970   48.6020   11.7800 C.3   142  LEU142      0.0019
    152  CD1       22.5560   47.8630   12.8990 C.3   142  LEU142      0.0001
    153  CD2       22.4330   48.3630   10.4270 C.3   142  LEU142      0.0001
    154  N         21.4310   53.5040   14.6750 N.3   153  ILE153     -0.1231
    155  CA        22.8910   53.4760   14.8420 C.3   153  ILE153      0.1692
    156  C         23.5630   54.8270   14.5220 C.2   153  ILE153      0.2592
    157  O         22.9430   55.7140   13.9350 O.2   153  ILE153     -0.2718
    158  CB        23.5260   52.3980   13.9180 C.3   153  ILE153      0.0266
    159  CG1       23.3130   52.7430   12.4400 C.3   153  ILE153      0.0019
    160  CG2       22.9720   51.0180   14.2270 C.3   153  ILE153      0.0020
    161  CD1       24.0380   51.7950   11.4600 C.3   153  ILE153      0.0001
    162  N         24.8440   54.9440   14.8910 N.am  154  ASP154     -0.1974
    163  CA        25.7050   56.1150   14.5900 C.3   154  ASP154      0.1709
    164  C         25.3070   57.4310   15.2570 C.2   154  ASP154      0.2293
    165  O         24.6220   58.2660   14.6540 O.2   154  ASP154     -0.2864
    166  CB        25.8120   56.3150   13.0630 C.3   154  ASP154      0.1436
    167  CG        27.0480   57.1310   12.6280 C.2   154  ASP154      0.3671
    168  OD1       27.9760   57.4190   13.4430 O.co2 154  ASP154     -0.2456
    169  OD2       27.1650   57.5330   11.4420 O.co2 154  ASP154     -0.2456
@<TRIPOS>BOND
     1   136   135   ar
     2   137   135   ar
     3   135   134    1
     4   134   133    1
     5   127   126   ar
     6   124   123    2
     7   128   126   ar
     8   126   125    1
     9     4     3    2
    10   123   122    1
    11   133   130    1
    12   129   130    1
    13    10    11    1
    14    10     9    2
    15   130   131    1
    16   121   122    1
    17     3     9    1
    18     3     2    1
    19   122   125    1
    20    11    12    2
    21   117   116    2
    22    22    23   ar
    23    22    20   ar
    24     2     1    1
    25     2     5    1
    26    23    21   ar
    27   131   132    2
    28   131   138   am
    29   116   115    1
    30    20    18   ar
    31     8     6    1
    32     5     6    1
    33   138   139    1
    34    21    19   ar
    35   114   115    1
    36   115   118    1
    37     6     7    1
    38   113   111   ar
    39    18    19   ar
    40    18    17    1
    41    13    14    1
    42    27    26    2
    43   144   143    2
    44   119   118    1
    45   139   142    1
    46   139   140    1
    47   143   145   am
    48   143   142    1
    49   118   120    1
    50   153   151    1
    51   111   112   ar
    52   111   110    1
    53    24    25    1
    54   147   148    1
    55   147   146    1
    56   147   150    1
    57   140   141    2
    58   148   149    2
    59    17    14    1
    60    26    25    1
    61    14    15    1
    62   169   167   ar
    63   161   159    1
    64    28    25    1
    65    28    30    1
    66    28    29    1
    67    15    16    2
    68   150   151    1
    69   151   152    1
    70   110   109    1
    71   107   106    1
    72   107   108    2
    73    96    95    1
    74   159   158    1
    75   167   166    1
    76   167   168   ar
    77   106   109    1
    78   106   105    1
    79   166   163    1
    80   101   100    2
    81    93    94    1
    82    93    92    1
    83    95    94    2
    84    95    97    1
    85   105   100   am
    86   158   160    1
    87   158   155    1
    88   157   156    2
    89   100    99    1
    90    92    91    1
    91   156   155    1
    92   156   162   am
    93    44    43    1
    94   163   162    1
    95   163   164    1
    96    42    41    1
    97    42    43    1
    98   165   164    2
    99   154   155    1
   100   103   102    1
   101   103   104    1
   102    41    40    1
   103   102    99    1
   104    35    32    1
   105    99    98    1
   106    37    40    1
   107    37    38    1
   108    37    36    1
   109    91    88    1
   110   104    98    1
   111    98    89   am
   112    32    33    1
   113    32    31    1
   114    38    39    2
   115    89    90    2
   116    89    88    1
   117    88    87    1
   118    33    34    2
   119    69    67    1
   120    53    51   ar
   121    52    51   ar
   122    81    80    2
   123    51    50    1
   124    67    66    1
   125    76    75    1
   126    87    80   am
   127    66    68    1
   128    66    63    1
   129    80    79    1
   130    74    75    1
   131    74    71    1
   132    50    49    1
   133    75    77    1
   134    73    72    2
   135    62    63    1
   136    63    64    1
   137    49    46    1
   138    72    71    1
   139    72    78   am
   140    79    78    1
   141    79    82    1
   142    71    70    1
   143    83    82    1
   144    83    84    1
   145    64    65    2
   146    46    45    1
   147    46    47    1
   148    84    86   ar
   149    84    85   ar
   150    60    59    1
   151    61    59    1
   152    59    58    1
   153    47    48    2
   154    58    55    1
   155    55    54    1
   156    55    56    1
   157    56    57    2
