@<TRIPOS>MOLECULE
tmp/1yxvA00.pdb
 118 110 0 0 0
SMALL
GASTEIGER

@<TRIPOS>ATOM
      1  N         80.6140   38.8800    4.2540 N.3    12  LEU12      -0.1231
      2  CA        79.2250   38.6870    4.6810 C.3    12  LEU12       0.1693
      3  C         79.0150   37.3750    5.4300 C.2    12  LEU12       0.2592
      4  O         78.1460   37.2730    6.2950 O.2    12  LEU12      -0.2718
      5  CB        78.2900   38.7370    3.4720 C.3    12  LEU12       0.0284
      6  CG        78.1870   40.0990    2.7780 C.3    12  LEU12       0.0019
      7  CD1       77.4090   39.9920    1.4560 C.3    12  LEU12       0.0001
      8  CD2       77.5350   41.1180    3.6940 C.3    12  LEU12       0.0001
      9  N         79.8050   36.3660    5.0940 N.am   13  GLY13      -0.1957
     10  CA        79.6830   35.0680    5.7350 C.3    13  GLY13       0.1869
     11  C         80.6150   34.0230    5.1520 C.2    13  GLY13       0.2309
     12  O         81.2040   34.2080    4.0750 O.2    13  GLY13      -0.2863
     13  N         79.5300   26.8250    2.0050 N.3    17  PHE17      -0.1241
     14  CA        79.2970   27.5180    0.7310 C.3    17  PHE17       0.1605
     15  C         80.5020   28.3570    0.2630 C.2    17  PHE17       0.2264
     16  O         80.4690   28.9210   -0.8270 O.2    17  PHE17      -0.2867
     17  CB        78.0530   28.4140    0.8420 C.3    17  PHE17       0.0534
     18  CG        78.0910   29.3970    2.0060 C.ar   17  PHE17      -0.0203
     19  CD1       78.6810   30.6530    1.8640 C.ar   17  PHE17      -0.0042
     20  CD2       77.5170   29.0650    3.2340 C.ar   17  PHE17      -0.0042
     21  CE1       78.7050   31.5550    2.9320 C.ar   17  PHE17      -0.0003
     22  CE2       77.5480   29.9630    4.3080 C.ar   17  PHE17      -0.0003
     23  CZ        78.1400   31.2140    4.1480 C.ar   17  PHE17      -0.0000
     24  N         81.8990   34.5880    1.2620 N.3    20  VAL20      -0.1245
     25  CA        81.1510   35.5430    0.4580 C.3    20  VAL20       0.1561
     26  C         81.3460   36.9520    0.9590 C.2    20  VAL20       0.2260
     27  O         81.1320   37.2160    2.1350 O.2    20  VAL20      -0.2867
     28  CB        79.6530   35.2450    0.5180 C.3    20  VAL20       0.0252
     29  CG1       78.8830   36.1770   -0.4080 C.3    20  VAL20       0.0019
     30  CG2       79.3900   33.8020    0.1440 C.3    20  VAL20       0.0019
     31  N         77.5790   40.2010   -4.7190 N.3    33  ALA33      -0.1245
     32  CA        78.1820   39.3350   -3.7180 C.3    33  ALA33       0.1562
     33  C         79.2940   38.5690   -4.4350 C.2    33  ALA33       0.2260
     34  O         79.0950   38.0540   -5.5260 O.2    33  ALA33      -0.2867
     35  CB        77.1630   38.3900   -3.1130 C.3    33  ALA33       0.0290
     36  N         81.6530   35.4510   -4.1470 N.3    35  LYS35      -0.1245
     37  CA        81.8040   34.1770   -3.4660 C.3    35  LYS35       0.1561
     38  C         83.0420   33.4120   -3.9330 C.2    35  LYS35       0.2260
     39  O         83.1670   33.0690   -5.1150 O.2    35  LYS35      -0.2867
     40  CB        80.5470   33.3510   -3.7200 C.3    35  LYS35       0.0271
     41  CG        80.5560   31.9560   -3.1820 C.3    35  LYS35       0.0035
     42  CD        79.2960   31.2440   -3.6440 C.3    35  LYS35       0.0206
     43  CE        78.8500   30.1780   -2.6800 C.3    35  LYS35       0.1093
     44  NZ        77.5260   29.6520   -2.9810 N.3    35  LYS35      -0.1314
     45  N         68.7650   33.8610   -7.0690 N.3    72  ILE72      -0.1245
     46  CA        69.9370   34.6920   -7.1970 C.3    72  ILE72       0.1561
     47  C         70.5830   34.4630   -8.5690 C.2    72  ILE72       0.2260
     48  O         70.7670   33.3240   -8.9930 O.2    72  ILE72      -0.2867
     49  CB        70.9140   34.3200   -6.0890 C.3    72  ILE72       0.0252
     50  CG1       71.8050   35.5160   -5.7870 C.3    72  ILE72       0.0019
     51  CG2       71.6860   32.9790   -6.4310 C.3    72  ILE72       0.0019
     52  CD1       71.0840   36.4960   -4.8380 C.3    72  ILE72       0.0001
     53  N         77.7210   37.3480   -7.9010 N.3    88  LEU88      -0.1231
     54  CA        76.2930   37.1440   -7.7750 C.3    88  LEU88       0.1693
     55  C         75.5990   38.4430   -7.4590 C.2    88  LEU88       0.2592
     56  O         76.2080   39.3700   -6.9480 O.2    88  LEU88      -0.2718
     57  CB        76.0290   36.1520   -6.6420 C.3    88  LEU88       0.0284
     58  CG        76.6380   34.7650   -6.8350 C.3    88  LEU88       0.0019
     59  CD1       77.0550   34.1450   -5.5210 C.3    88  LEU88       0.0001
     60  CD2       75.6500   33.8700   -7.5420 C.3    88  LEU88       0.0001
     61  N         74.3040   38.5030   -7.7340 N.am   89  GLU89      -0.1966
     62  CA        73.5630   39.7180   -7.4320 C.3    89  GLU89       0.1733
     63  C         73.3970   39.8390   -5.9160 C.2    89  GLU89       0.2616
     64  O         73.5090   38.8540   -5.1840 O.2    89  GLU89      -0.2715
     65  CB        72.2600   39.8100   -8.2580 C.3    89  GLU89       0.0429
     66  CG        70.9690   39.3540   -7.6350 C.3    89  GLU89       0.1163
     67  CD        69.9110   39.1010   -8.7110 C.2    89  GLU89       0.3649
     68  OE1       69.5840   40.0390   -9.4870 O.co2  89  GLU89      -0.2457
     69  OE2       69.4410   37.9570   -8.8040 O.co2  89  GLU89      -0.2457
     70  N         73.2330   41.0590   -5.4400 N.am   90  ARG90      -0.1964
     71  CA        73.0870   41.3000   -4.0100 C.3    90  ARG90       0.1714
     72  C         72.0060   42.3470   -3.7370 C.2    90  ARG90       0.2458
     73  O         72.2040   43.5120   -4.0210 O.2    90  ARG90      -0.2730
     74  CB        74.4280   41.7730   -3.4300 C.3    90  ARG90       0.0347
     75  CG        74.3570   42.3760   -2.0190 C.3    90  ARG90       0.0492
     76  CD        75.7150   42.5820   -1.3760 C.3    90  ARG90       0.2205
     77  NE        76.4540   43.7330   -1.9070 N.pl3  90  ARG90      -0.0865
     78  CZ        76.2360   45.0080   -1.5730 C.cat  90  ARG90       0.5346
     79  NH1       75.2670   45.3440   -0.7320 N.pl3  90  ARG90       0.1354
     80  NH2       76.9950   45.9610   -2.0930 N.pl3  90  ARG90       0.1354
     81  N         70.8550   41.9220   -3.2250 N.am   91  PRO91      -0.2727
     82  CA        69.8040   42.8630   -2.8130 C.3    91  PRO91       0.1402
     83  C         70.2810   43.7220   -1.6470 C.2    91  PRO91       0.2269
     84  O         71.1330   43.2740   -0.8760 O.2    91  PRO91      -0.2865
     85  CB        68.6700   41.9490   -2.3510 C.3    91  PRO91       0.0296
     86  CG        68.9580   40.6120   -2.9600 C.3    91  PRO91       0.0237
     87  CD        70.4450   40.5170   -3.0470 C.3    91  PRO91       0.0939
     88  N         69.1270   43.5370    2.8240 N.3    94  VAL94      -0.1245
     89  CA        68.8450   42.1160    2.7990 C.3    94  VAL94       0.1561
     90  C         69.1510   41.4510    4.1490 C.2    94  VAL94       0.2260
     91  O         69.9820   41.9210    4.9340 O.2    94  VAL94      -0.2867
     92  CB        69.6930   41.4390    1.6820 C.3    94  VAL94       0.0252
     93  CG1       71.1920   41.4010    2.0600 C.3    94  VAL94       0.0019
     94  CG2       69.1930   40.0610    1.3640 C.3    94  VAL94       0.0019
     95  N         67.2010   34.4510    0.8520 N.3   142  LEU142     -0.1245
     96  CA        67.4400   35.8530    1.1650 C.3   142  LEU142      0.1561
     97  C         66.1510   36.6470    1.0380 C.2   142  LEU142      0.2260
     98  O         65.3450   36.3800    0.1590 O.2   142  LEU142     -0.2867
     99  CB        68.4740   36.4670    0.2210 C.3   142  LEU142      0.0270
    100  CG        69.8830   35.8850    0.2990 C.3   142  LEU142      0.0019
    101  CD1       70.7990   36.6630   -0.6390 C.3   142  LEU142      0.0001
    102  CD2       70.4100   35.8980    1.7400 C.3   142  LEU142      0.0001
    103  N         69.4620   30.9430   -2.6800 N.3   153  ILE153     -0.1231
    104  CA        70.9060   30.9800   -2.8620 C.3   153  ILE153      0.1692
    105  C         71.5760   29.6350   -2.5390 C.2   153  ILE153      0.2592
    106  O         70.9390   28.7200   -2.0050 O.2   153  ILE153     -0.2718
    107  CB        71.5310   32.0910   -1.9650 C.3   153  ILE153      0.0266
    108  CG1       71.2020   31.8730   -0.4820 C.3   153  ILE153      0.0019
    109  CG2       71.0400   33.4610   -2.3830 C.3   153  ILE153      0.0020
    110  CD1       72.2560   32.4140    0.4730 C.3   153  ILE153      0.0001
    111  N         72.8680   29.5590   -2.8610 N.am  154  ASP154     -0.1974
    112  CA        73.7400   28.3970   -2.6360 C.3   154  ASP154      0.1709
    113  C         73.2660   27.0860   -3.2540 C.2   154  ASP154      0.2293
    114  O         72.6280   26.2550   -2.6080 O.2   154  ASP154     -0.2864
    115  CB        74.0570   28.1920   -1.1550 C.3   154  ASP154      0.1436
    116  CG        75.2290   27.2230   -0.9340 C.2   154  ASP154      0.3671
    117  OD1       76.0840   27.0340   -1.8500 O.co2 154  ASP154     -0.2456
    118  OD2       75.3680   26.5980    0.1380 O.co2 154  ASP154     -0.2456
@<TRIPOS>BOND
     1    68    67   ar
     2    48    47    2
     3    69    67   ar
     4    67    66    1
     5    47    46    1
     6    65    66    1
     7    65    62    1
     8    53    54    1
     9    54    55    1
    10    54    57    1
    11    61    55   am
    12    61    62    1
    13    60    58    1
    14    55    56    2
    15    62    63    1
    16    46    45    1
    17    46    49    1
    18    58    57    1
    19    58    59    1
    20    51    49    1
    21    49    50    1
    22    63    70   am
    23    63    64    2
    24    50    52    1
    25    34    33    2
    26    70    71    1
    27    39    38    2
    28    31    32    1
    29    33    32    1
    30    36    37    1
    31    73    72    2
    32    71    72    1
    33    71    74    1
    34    38    37    1
    35    72    81   am
    36    40    37    1
    37    40    41    1
    38    32    35    1
    39    42    41    1
    40    42    43    1
    41    74    75    1
    42   113   112    1
    43   113   114    2
    44    81    87    1
    45    81    82    1
    46    87    86    1
    47    44    43    1
    48    86    85    1
    49   104   103    1
    50   104   105    1
    51   104   107    1
    52   111   112    1
    53   111   105   am
    54    82    85    1
    55    82    83    1
    56   112   115    1
    57   105   106    2
    58   109   107    1
    59    80    78    1
    60    75    76    1
    61   107   108    1
    62    77    78    2
    63    77    76    1
    64   117   116   ar
    65    83    84    2
    66    78    79    1
    67   115   116    1
    68   116   118   ar
    69    16    15    2
    70   101   100    1
    71   108   110    1
    72    29    28    1
    73    30    28    1
    74    98    97    2
    75    99   100    1
    76    99    96    1
    77    15    14    1
    78   100   102    1
    79    25    28    1
    80    25    26    1
    81    25    24    1
    82    14    17    1
    83    14    13    1
    84    17    18    1
    85    95    96    1
    86    26    27    2
    87    97    96    1
    88    94    92    1
    89     7     6    1
    90    92    93    1
    91    92    89    1
    92    19    18   ar
    93    19    21   ar
    94    18    20   ar
    95     6     5    1
    96     6     8    1
    97    89    88    1
    98    89    90    1
    99    21    23   ar
   100    20    22   ar
   101     5     2    1
   102    12    11    2
   103    23    22   ar
   104    90    91    2
   105     1     2    1
   106     2     3    1
   107     9     3   am
   108     9    10    1
   109    11    10    1
   110     3     4    2
