@<TRIPOS>MOLECULE
tmp/1yxwA00.pdb
 125 118 0 0 0
SMALL
GASTEIGER

@<TRIPOS>ATOM
      1  N         50.7540    0.5300   45.8870 N.3   269  LYS269     -0.1245
      2  CA        51.1210   -0.8430   45.5810 C.3   269  LYS269      0.1561
      3  C         49.8560   -1.6560   45.3020 C.2   269  LYS269      0.2260
      4  O         49.7210   -2.2660   44.2440 O.2   269  LYS269     -0.2867
      5  CB        51.8860   -1.4440   46.7650 C.3   269  LYS269      0.0271
      6  CG        52.7270   -2.6570   46.4160 C.3   269  LYS269      0.0035
      7  CD        51.8740   -3.8490   46.0510 C.3   269  LYS269      0.0206
      8  CE        52.7530   -5.0500   45.7210 C.3   269  LYS269      0.1093
      9  NZ        53.5900   -5.4260   46.8860 N.3   269  LYS269     -0.1314
     10  N         47.3120   -1.8690   50.9090 N.3   273  ASP273     -0.1225
     11  CA        48.7690   -1.8150   51.0210 C.3   273  ASP273      0.1805
     12  C         49.4390   -0.4340   51.1100 C.2   273  ASP273      0.2597
     13  O         48.8050    0.5610   51.4750 O.2   273  ASP273     -0.2718
     14  CB        49.4120   -2.6260   49.8980 C.3   273  ASP273      0.1424
     15  CG        50.5040   -3.5430   50.4070 C.2   273  ASP273      0.3668
     16  OD1       51.2980   -3.1080   51.2720 O.co2 273  ASP273     -0.2456
     17  OD2       50.5760   -4.6980   49.9410 O.co2 273  ASP273     -0.2456
     18  N         50.7270   -0.3900   50.7640 N.am  274  TYR274     -0.1976
     19  CA        51.5330    0.8260   50.8640 C.3   274  TYR274      0.1639
     20  C         51.6800    1.6910   49.6250 C.2   274  TYR274      0.2290
     21  O         51.3710    1.2780   48.5070 O.2   274  TYR274     -0.2864
     22  CB        52.9350    0.4770   51.3900 C.3   274  TYR274      0.0560
     23  CG        53.8560   -0.1800   50.3780 C.ar  274  TYR274     -0.0198
     24  CD1       54.7770    0.5760   49.6570 C.ar  274  TYR274     -0.0009
     25  CD2       53.8100   -1.5610   50.1470 C.ar  274  TYR274     -0.0009
     26  CE1       55.6360   -0.0190   48.7300 C.ar  274  TYR274      0.0417
     27  CE2       54.6640   -2.1690   49.2190 C.ar  274  TYR274      0.0417
     28  CZ        55.5750   -1.3880   48.5170 C.ar  274  TYR274      0.1957
     29  OH        56.4400   -1.9730   47.6150 O.3   274  TYR274     -0.2866
     30  N         47.9430    0.6290   60.8390 N.3   338  PRO338     -0.2102
     31  CA        47.3050   -0.3560   61.7210 C.3   338  PRO338      0.1504
     32  C         48.2200   -0.7090   62.8910 C.2   338  PRO338      0.2576
     33  O         49.4420   -0.7240   62.7450 O.2   338  PRO338     -0.2718
     34  CB        47.0730   -1.5450   60.7890 C.3   338  PRO338      0.0282
     35  CG        48.2810   -1.4920   59.8970 C.3   338  PRO338      0.0208
     36  CD        48.4220   -0.0040   59.5940 C.3   338  PRO338      0.0893
     37  N         47.6340   -0.9860   64.0500 N.am  339  LYS339     -0.1966
     38  CA        48.4310   -1.3360   65.2240 C.3   339  LYS339      0.1728
     39  C         49.3790   -2.4750   64.8530 C.2   339  LYS339      0.2616
     40  O         48.9860   -3.4260   64.1830 O.2   339  LYS339     -0.2715
     41  CB        47.5200   -1.7600   66.3780 C.3   339  LYS339      0.0311
     42  CG        48.2620   -2.0120   67.6720 C.3   339  LYS339      0.0038
     43  CD        47.3110   -2.4020   68.7840 C.3   339  LYS339      0.0206
     44  CE        48.0610   -2.6790   70.0740 C.3   339  LYS339      0.1093
     45  NZ        47.1190   -2.7550   71.2220 N.3   339  LYS339     -0.1314
     46  N         50.6280   -2.3570   65.2880 N.am  340  ASP340     -0.1957
     47  CA        51.6640   -3.3470   65.0040 C.3   340  ASP340      0.1840
     48  C         51.9640   -3.4750   63.5150 C.2   340  ASP340      0.2623
     49  O         52.6050   -4.4370   63.0910 O.2   340  ASP340     -0.2715
     50  CB        51.2760   -4.7190   65.5480 C.3   340  ASP340      0.1450
     51  CG        51.1030   -4.7200   67.0420 C.2   340  ASP340      0.3671
     52  OD1       52.0550   -4.3210   67.7440 O.co2 340  ASP340     -0.2456
     53  OD2       50.0160   -5.1220   67.5090 O.co2 340  ASP340     -0.2456
     54  N         51.5020   -2.5110   62.7240 N.am  341  GLY341     -0.1940
     55  CA        51.7570   -2.5570   61.2960 C.3   341  GLY341      0.2014
     56  C         53.2430   -2.6140   60.9870 C.2   341  GLY341      0.2638
     57  O         54.0630   -2.1280   61.7650 O.2   341  GLY341     -0.2714
     58  N         53.5980   -3.2140   59.8560 N.am  342  ASN342     -0.1972
     59  CA        54.9960   -3.3130   59.4670 C.3   342  ASN342      0.1688
     60  C         55.5940   -1.9150   59.4450 C.2   342  ASN342      0.2292
     61  O         54.9520   -0.9540   59.0120 O.2   342  ASN342     -0.2864
     62  CB        55.1260   -3.9750   58.0860 C.3   342  ASN342      0.1181
     63  CG        56.5740   -4.0370   57.5870 C.2   342  ASN342      0.2629
     64  OD1       57.5180   -4.1430   58.3760 O.2   342  ASN342     -0.2716
     65  ND2       56.7480   -3.9890   56.2660 N.am  342  ASN342     -0.0877
     66  N         54.9120    2.2990   58.1580 N.3   350  ILE350     -0.1245
     67  CA        54.4460    2.2720   56.7820 C.3   350  ILE350      0.1561
     68  C         52.9540    2.5140   56.6760 C.2   350  ILE350      0.2260
     69  O         52.1480    1.7840   57.2580 O.2   350  ILE350     -0.2867
     70  CB        54.7930    0.9290   56.1320 C.3   350  ILE350      0.0252
     71  CG1       56.3080    0.7080   56.2110 C.3   350  ILE350      0.0019
     72  CG2       54.3100    0.9070   54.6970 C.3   350  ILE350      0.0019
     73  CD1       56.7410   -0.7190   55.9220 C.3   350  ILE350      0.0001
     74  N         49.1940    2.6320   55.1530 N.3   352  ARG352     -0.1245
     75  CA        48.3750    1.6950   54.3990 C.3   352  ARG352      0.1563
     76  C         47.1270    2.4070   53.8900 C.2   352  ARG352      0.2260
     77  O         46.5770    3.2800   54.5630 O.2   352  ARG352     -0.2867
     78  CB        47.9710    0.5170   55.2780 C.3   352  ARG352      0.0307
     79  CG        49.1440   -0.2970   55.7890 C.3   352  ARG352      0.0489
     80  CD        49.9510   -0.8680   54.6370 C.3   352  ARG352      0.2205
     81  NE        50.4060   -2.2310   54.9060 N.pl3 352  ARG352     -0.0865
     82  CZ        49.6040   -3.2900   54.9680 C.cat 352  ARG352      0.5346
     83  NH1       48.3070   -3.1500   54.7820 N.pl3 352  ARG352      0.1354
     84  NH2       50.0960   -4.4930   55.2180 N.pl3 352  ARG352      0.1354
     85  N         43.3220   -0.2480   54.5950 N.3   355  TYR355     -0.1241
     86  CA        43.6200   -1.4270   55.4010 C.3   355  TYR355      0.1605
     87  C         42.2970   -1.7770   56.0680 C.2   355  TYR355      0.2264
     88  O         41.5700   -0.8830   56.5000 O.2   355  TYR355     -0.2867
     89  CB        44.6580   -1.1030   56.4710 C.3   355  TYR355      0.0534
     90  CG        45.1300   -2.3060   57.2620 C.ar  355  TYR355     -0.0201
     91  CD1       46.1540   -3.1240   56.7820 C.ar  355  TYR355     -0.0009
     92  CD2       44.5600   -2.6180   58.4970 C.ar  355  TYR355     -0.0009
     93  CE1       46.6090   -4.2250   57.5140 C.ar  355  TYR355      0.0417
     94  CE2       45.0010   -3.7130   59.2330 C.ar  355  TYR355      0.0417
     95  CZ        46.0280   -4.5110   58.7360 C.ar  355  TYR355      0.1957
     96  OH        46.4660   -5.5960   59.4670 O.3   355  TYR355     -0.2866
     97  N         41.8880   -5.1790   58.0150 N.3   357  ALA357     -0.1245
     98  CA        41.9970   -6.4400   58.7420 C.3   357  ALA357      0.1562
     99  C         41.0860   -6.3870   59.9700 C.2   357  ALA357      0.2260
    100  O         41.2160   -5.4980   60.8110 O.2   357  ALA357     -0.2867
    101  CB        43.4430   -6.6730   59.1650 C.3   357  ALA357      0.0290
    102  N         41.8690   -5.4130   64.0640 N.3   360  ILE360     -0.1245
    103  CA        43.1020   -4.6440   64.1780 C.3   360  ILE360      0.1561
    104  C         42.8520   -3.1420   64.0780 C.2   360  ILE360      0.2260
    105  O         42.4110   -2.6500   63.0410 O.2   360  ILE360     -0.2867
    106  CB        44.1000   -5.0320   63.0720 C.3   360  ILE360      0.0252
    107  CG1       44.4940   -6.5040   63.2210 C.3   360  ILE360      0.0019
    108  CG2       45.3160   -4.1100   63.1230 C.3   360  ILE360      0.0019
    109  CD1       45.1070   -6.8280   64.5590 C.3   360  ILE360      0.0001
    110  N         59.9060   -4.0040   50.9050 N.3   401  ILE401     -0.1245
    111  CA        58.8110   -4.6770   51.5710 C.3   401  ILE401      0.1561
    112  C         58.7300   -6.0470   50.8970 C.2   401  ILE401      0.2260
    113  O         58.3030   -6.1700   49.7500 O.2   401  ILE401     -0.2867
    114  CB        57.4960   -3.8880   51.4070 C.3   401  ILE401      0.0252
    115  CG1       57.6480   -2.5290   52.0930 C.3   401  ILE401      0.0019
    116  CG2       56.3360   -4.6550   52.0260 C.3   401  ILE401      0.0019
    117  CD1       56.4440   -1.6300   51.9930 C.3   401  ILE401      0.0001
    118  N         59.5010   -7.0320   46.9780 N.3   404  ASP404     -0.1239
    119  CA        59.3910   -5.8510   46.1290 C.3   404  ASP404      0.1674
    120  C         60.7200   -5.1210   45.9730 C.2   404  ASP404      0.2266
    121  O         61.5810   -5.1740   46.8510 O.2   404  ASP404     -0.2867
    122  CB        58.3420   -4.8790   46.6820 C.3   404  ASP404      0.1410
    123  CG        56.9390   -5.4730   46.6920 C.2   404  ASP404      0.3668
    124  OD1       56.7440   -6.5700   46.1200 O.co2 404  ASP404     -0.2456
    125  OD2       56.0320   -4.8360   47.2680 O.co2 404  ASP404     -0.2456
@<TRIPOS>BOND
     1     4     3    2
     2     3     2    1
     3     2     1    1
     4     2     5    1
     5     8     7    1
     6     8     9    1
     7   120   119    1
     8   120   121    2
     9     7     6    1
    10   124   123   ar
    11   119   122    1
    12   119   118    1
    13     6     5    1
    14   122   123    1
    15   123   125   ar
    16    29    28    1
    17    21    20    2
    18    28    26   ar
    19    28    27   ar
    20    26    24   ar
    21    27    25   ar
    22    20    19    1
    23    24    23   ar
    24   113   112    2
    25    14    15    1
    26    14    11    1
    27    17    15   ar
    28    25    23   ar
    29    23    22    1
    30    15    16   ar
    31    18    19    1
    32    18    12   am
    33    19    22    1
    34   112   111    1
    35   110   111    1
    36    10    11    1
    37    11    12    1
    38    12    13    2
    39   114   111    1
    40   114   116    1
    41   114   115    1
    42   117   115    1
    43    76    75    1
    44    76    77    2
    45    75    74    1
    46    75    78    1
    47    85    86    1
    48    80    81    1
    49    80    79    1
    50    72    70    1
    51    83    82    1
    52    81    82    2
    53    82    84    1
    54    78    79    1
    55    86    87    1
    56    86    89    1
    57    73    71    1
    58    87    88    2
    59    70    71    1
    60    70    67    1
    61    65    63   am
    62    89    90    1
    63    68    67    1
    64    68    69    2
    65    67    66    1
    66    91    90   ar
    67    91    93   ar
    68    90    92   ar
    69    93    95   ar
    70    63    62    1
    71    63    64    2
    72    97    98    1
    73    62    59    1
    74    92    94   ar
    75    95    94   ar
    76    95    96    1
    77    98   101    1
    78    98    99    1
    79    61    60    2
    80    60    59    1
    81    59    58    1
    82    36    35    1
    83    36    30    1
    84    58    56   am
    85    35    34    1
    86    99   100    2
    87    34    31    1
    88    30    31    1
    89    56    55    1
    90    56    57    2
    91    55    54    1
    92    31    32    1
    93    54    48   am
    94    33    32    2
    95    32    37   am
    96   105   104    2
    97   106   108    1
    98   106   107    1
    99   106   103    1
   100    49    48    2
   101   107   109    1
   102    48    47    1
   103    37    38    1
   104   102   103    1
   105   104   103    1
   106    40    39    2
   107    39    38    1
   108    39    46   am
   109    47    46    1
   110    47    50    1
   111    38    41    1
   112    50    51    1
   113    41    42    1
   114    51    53   ar
   115    51    52   ar
   116    42    43    1
   117    43    44    1
   118    44    45    1
