@<TRIPOS>MOLECULE
tmp/1yxxA00.pdb
 156 146 0 0 0
SMALL
GASTEIGER

@<TRIPOS>ATOM
      1  N         79.8810   38.5660    4.3850 N.3    12  LEU12      -0.1231
      2  CA        78.4780   38.3930    4.7460 C.3    12  LEU12       0.1693
      3  C         78.1890   37.0710    5.4670 C.2    12  LEU12       0.2592
      4  O         77.2970   37.0130    6.3120 O.2    12  LEU12      -0.2718
      5  CB        77.6050   38.5210    3.4970 C.3    12  LEU12       0.0284
      6  CG        77.4790   39.9410    2.9360 C.3    12  LEU12       0.0019
      7  CD1       76.7630   39.9380    1.5740 C.3    12  LEU12       0.0001
      8  CD2       76.7550   40.8430    3.9330 C.3    12  LEU12       0.0001
      9  N         78.9260   36.0150    5.1280 N.am   13  GLY13      -0.1957
     10  CA        78.7610   34.7120    5.7680 C.3    13  GLY13       0.1869
     11  C         79.7590   33.6540    5.3110 C.2    13  GLY13       0.2309
     12  O         80.4850   33.8400    4.3260 O.2    13  GLY13      -0.2863
     13  N         79.1320   26.3450    2.1020 N.3    17  PHE17      -0.1241
     14  CA        78.9420   26.9390    0.7740 C.3    17  PHE17       0.1605
     15  C         80.1460   27.7720    0.3400 C.2    17  PHE17       0.2264
     16  O         80.2560   28.1440   -0.8160 O.2    17  PHE17      -0.2867
     17  CB        77.6840   27.8120    0.7320 C.3    17  PHE17       0.0534
     18  CG        77.6040   28.8650    1.8260 C.ar   17  PHE17      -0.0203
     19  CD1       78.1860   30.1180    1.6580 C.ar   17  PHE17      -0.0042
     20  CD2       76.8950   28.6100    3.0040 C.ar   17  PHE17      -0.0042
     21  CE1       78.0870   31.0820    2.6620 C.ar   17  PHE17      -0.0003
     22  CE2       76.7980   29.5680    4.0010 C.ar   17  PHE17      -0.0003
     23  CZ        77.3960   30.8050    3.8260 C.ar   17  PHE17      -0.0000
     24  N         81.1620   34.3010    1.4350 N.3    20  VAL20      -0.1245
     25  CA        80.4340   35.2590    0.6200 C.3    20  VAL20       0.1561
     26  C         80.6190   36.6580    1.1660 C.2    20  VAL20       0.2260
     27  O         80.3410   36.8870    2.3250 O.2    20  VAL20      -0.2867
     28  CB        78.9390   34.9520    0.6770 C.3    20  VAL20       0.0252
     29  CG1       78.1300   36.0430   -0.0270 C.3    20  VAL20       0.0019
     30  CG2       78.6540   33.5820    0.0770 C.3    20  VAL20       0.0019
     31  N         77.0380   40.1120   -4.5950 N.3    33  ALA33      -0.1245
     32  CA        77.5820   39.2180   -3.5710 C.3    33  ALA33       0.1562
     33  C         78.6880   38.4010   -4.2640 C.2    33  ALA33       0.2260
     34  O         78.4720   37.8170   -5.3310 O.2    33  ALA33      -0.2867
     35  CB        76.4730   38.2930   -2.9880 C.3    33  ALA33       0.0290
     36  N         80.9470   35.2570   -4.0410 N.3    35  LYS35      -0.1245
     37  CA        81.0910   33.9520   -3.3910 C.3    35  LYS35       0.1561
     38  C         82.3730   33.2340   -3.8380 C.2    35  LYS35       0.2260
     39  O         82.6310   33.0760   -5.0380 O.2    35  LYS35      -0.2867
     40  CB        79.8870   33.0930   -3.7310 C.3    35  LYS35       0.0271
     41  CG        79.8200   31.7670   -3.0100 C.3    35  LYS35       0.0035
     42  CD        78.5760   31.0230   -3.4520 C.3    35  LYS35       0.0206
     43  CE        78.2510   29.8590   -2.5200 C.3    35  LYS35       0.1093
     44  NZ        77.0060   29.1440   -2.9680 N.3    35  LYS35      -0.1314
     45  N         77.3160   23.6930   -9.2100 N.3    57  GLU57      -0.1245
     46  CA        76.6750   24.9160   -8.7460 C.3    57  GLU57       0.1567
     47  C         76.5770   25.9930   -9.8290 C.2    57  GLU57       0.2260
     48  O         75.5640   26.6830   -9.9210 O.2    57  GLU57      -0.2867
     49  CB        77.4590   25.4700   -7.5700 C.3    57  GLU57       0.0388
     50  CG        76.7250   26.5750   -6.8530 C.3    57  GLU57       0.1160
     51  CD        77.5060   27.1610   -5.7160 C.2    57  GLU57       0.3649
     52  OE1       78.5860   26.6450   -5.3460 O.co2  57  GLU57      -0.2457
     53  OE2       77.0290   28.1750   -5.2140 O.co2  57  GLU57      -0.2457
     54  N         73.0860   27.2970  -11.6080 N.3    61  LEU61      -0.1245
     55  CA        72.7870   28.7250  -11.5390 C.3    61  LEU61       0.1561
     56  C         72.4860   29.3120  -12.9130 C.2    61  LEU61       0.2260
     57  O         71.5540   30.1170  -13.0650 O.2    61  LEU61      -0.2867
     58  CB        73.9400   29.4880  -10.8500 C.3    61  LEU61       0.0270
     59  CG        73.9250   29.4010   -9.3020 C.3    61  LEU61       0.0019
     60  CD1       75.2560   29.8190   -8.6930 C.3    61  LEU61       0.0001
     61  CD2       72.8330   30.2780   -8.7370 C.3    61  LEU61       0.0001
     62  N         68.2070   33.5320   -7.0600 N.3    72  ILE72      -0.1245
     63  CA        69.3520   34.4050   -7.1480 C.3    72  ILE72       0.1561
     64  C         69.9050   34.2970   -8.5440 C.2    72  ILE72       0.2260
     65  O         69.8990   33.2250   -9.1350 O.2    72  ILE72      -0.2867
     66  CB        70.4040   33.9820   -6.1280 C.3    72  ILE72       0.0252
     67  CG1       71.3660   35.1390   -5.8780 C.3    72  ILE72       0.0019
     68  CG2       71.1220   32.6470   -6.5580 C.3    72  ILE72       0.0019
     69  CD1       70.8060   36.1690   -4.8680 C.3    72  ILE72       0.0001
     70  N         77.1090   37.2240   -7.6560 N.3    88  LEU88      -0.1231
     71  CA        75.6720   37.0260   -7.5810 C.3    88  LEU88       0.1693
     72  C         74.9800   38.3360   -7.3010 C.2    88  LEU88       0.2592
     73  O         75.5870   39.2650   -6.8050 O.2    88  LEU88      -0.2718
     74  CB        75.3770   35.9980   -6.5030 C.3    88  LEU88       0.0284
     75  CG        75.9470   34.6310   -6.8780 C.3    88  LEU88       0.0019
     76  CD1       76.5690   33.9580   -5.6880 C.3    88  LEU88       0.0001
     77  CD2       74.8510   33.7540   -7.4480 C.3    88  LEU88       0.0001
     78  N         73.7040   38.4340   -7.6390 N.am   89  GLU89      -0.1966
     79  CA        73.0010   39.6840   -7.3880 C.3    89  GLU89       0.1733
     80  C         72.8150   39.8340   -5.8780 C.2    89  GLU89       0.2616
     81  O         72.8790   38.8640   -5.1470 O.2    89  GLU89      -0.2715
     82  CB        71.6850   39.7430   -8.1570 C.3    89  GLU89       0.0429
     83  CG        70.5460   39.0390   -7.4940 C.3    89  GLU89       0.1163
     84  CD        69.3880   38.8010   -8.4370 C.2    89  GLU89       0.3649
     85  OE1       68.9560   39.7550   -9.1290 O.co2  89  GLU89      -0.2457
     86  OE2       68.8960   37.6670   -8.4660 O.co2  89  GLU89      -0.2457
     87  N         72.6590   41.0650   -5.4120 N.am   90  ARG90      -0.1977
     88  CA        72.4800   41.2950   -3.9880 C.3    90  ARG90       0.1597
     89  C         71.4000   42.3360   -3.7010 C.2    90  ARG90       0.2287
     90  O         71.6110   43.5340   -3.9070 O.2    90  ARG90      -0.2864
     91  CB        73.8050   41.7280   -3.3370 C.3    90  ARG90       0.0334
     92  CG        73.6690   42.1570   -1.8630 C.3    90  ARG90       0.0492
     93  CD        74.9940   42.2240   -1.0990 C.3    90  ARG90       0.2205
     94  NE        75.8650   43.3040   -1.5740 N.pl3  90  ARG90      -0.0865
     95  CZ        75.6810   44.5940   -1.2950 C.cat  90  ARG90       0.5346
     96  NH1       74.6700   44.9830   -0.5230 N.pl3  90  ARG90       0.1354
     97  NH2       76.5230   45.5000   -1.7740 N.pl3  90  ARG90       0.1354
     98  N         68.3560   43.4410    2.8240 N.3    94  VAL94      -0.1231
     99  CA        68.0210   42.0320    2.7730 C.3    94  VAL94       0.1692
    100  C         68.2700   41.3840    4.1320 C.2    94  VAL94       0.2592
    101  O         69.0770   41.8570    4.9280 O.2    94  VAL94      -0.2718
    102  CB        68.8680   41.3210    1.6440 C.3    94  VAL94       0.0266
    103  CG1       70.3200   41.0610    2.0920 C.3    94  VAL94       0.0020
    104  CG2       68.2300   40.0520    1.1820 C.3    94  VAL94       0.0020
    105  N         67.5120   40.3390    4.4250 N.am   95  GLN95      -0.1966
    106  CA        67.7370   39.5310    5.6070 C.3    95  GLN95       0.1733
    107  C         67.3210   38.1130    5.2190 C.2    95  GLN95       0.2616
    108  O         66.2930   37.9330    4.5820 O.2    95  GLN95      -0.2715
    109  CB        66.9360   40.0210    6.8140 C.3    95  GLN95       0.0408
    110  CG        67.3290   39.2560    8.0990 C.3    95  GLN95       0.0908
    111  CD        66.5520   39.6810    9.3180 C.2    95  GLN95       0.2608
    112  OE1       65.3550   39.9440    9.2270 O.2    95  GLN95      -0.2717
    113  NE2       67.2290   39.7520   10.4640 N.am   95  GLN95      -0.0878
    114  N         68.1250   37.1140    5.5620 N.am   96  ASP96      -0.1971
    115  CA        67.7750   35.7330    5.2390 C.3    96  ASP96       0.1709
    116  C         66.6990   35.2570    6.2230 C.2    96  ASP96       0.2293
    117  O         66.5870   35.7830    7.3320 O.2    96  ASP96      -0.2864
    118  CB        69.0120   34.8180    5.1740 C.3    96  ASP96       0.1436
    119  CG        69.5380   34.4040    6.5520 C.2    96  ASP96       0.3671
    120  OD1       68.7460   34.0950    7.4740 O.co2  96  ASP96      -0.2456
    121  OD2       70.7590   34.3330    6.8000 O.co2  96  ASP96      -0.2456
    122  N         66.5110   34.3940    0.9350 N.3   142  LEU142     -0.1245
    123  CA        66.7300   35.8130    1.2280 C.3   142  LEU142      0.1561
    124  C         65.4360   36.5910    1.0810 C.2   142  LEU142      0.2260
    125  O         64.6690   36.3400    0.1590 O.2   142  LEU142     -0.2867
    126  CB        67.7230   36.4340    0.2630 C.3   142  LEU142      0.0270
    127  CG        69.1640   35.9800    0.2630 C.3   142  LEU142      0.0019
    128  CD1       69.9820   36.9590   -0.5600 C.3   142  LEU142      0.0001
    129  CD2       69.6960   35.8350    1.6890 C.3   142  LEU142      0.0001
    130  N         68.6500   30.9000   -2.5100 N.3   153  ILE153     -0.1231
    131  CA        70.0980   30.9170   -2.7220 C.3   153  ILE153      0.1692
    132  C         70.7890   29.5650   -2.4440 C.2   153  ILE153      0.2592
    133  O         70.1910   28.6190   -1.9340 O.2   153  ILE153     -0.2718
    134  CB        70.7600   31.9820   -1.8160 C.3   153  ILE153      0.0266
    135  CG1       70.6480   31.5940   -0.3420 C.3   153  ILE153      0.0019
    136  CG2       70.1600   33.3440   -2.0650 C.3   153  ILE153      0.0020
    137  CD1       71.5760   32.3810    0.5870 C.3   153  ILE153      0.0001
    138  N         72.0730   29.5330   -2.7850 N.am  154  ASP154     -0.1960
    139  CA        72.9820   28.4200   -2.5390 C.3   154  ASP154      0.1840
    140  C         72.6310   27.1140   -3.2390 C.2   154  ASP154      0.2622
    141  O         72.0960   26.2170   -2.6590 O.2   154  ASP154     -0.2715
    142  CB        73.1360   28.2140   -1.0330 C.3   154  ASP154      0.1450
    143  CG        74.3560   27.3790   -0.6630 C.2   154  ASP154      0.3671
    144  OD1       75.0750   26.8600   -1.5520 O.co2 154  ASP154     -0.2456
    145  OD2       74.6550   27.1970    0.5240 O.co2 154  ASP154     -0.2456
    146  N         73.0380   26.9910   -4.4840 N.am  155  PHE155     -0.1974
    147  CA        72.7900   25.8020   -5.2720 C.3   155  PHE155      0.1639
    148  C         73.9570   24.8100   -5.2070 C.2   155  PHE155      0.2290
    149  O         74.1080   23.9530   -6.0950 O.2   155  PHE155     -0.2864
    150  CB        72.5150   26.2530   -6.7100 C.3   155  PHE155      0.0560
    151  CG        71.1520   26.7990   -6.8800 C.ar  155  PHE155     -0.0200
    152  CD1       70.8680   28.1080   -6.5100 C.ar  155  PHE155     -0.0042
    153  CD2       70.1300   25.9890   -7.3630 C.ar  155  PHE155     -0.0042
    154  CE1       69.5910   28.6140   -6.6460 C.ar  155  PHE155     -0.0003
    155  CE2       68.8520   26.4890   -7.5000 C.ar  155  PHE155     -0.0003
    156  CZ        68.5790   27.8010   -7.1300 C.ar  155  PHE155     -0.0000
@<TRIPOS>BOND
     1    57    56    2
     2    56    55    1
     3    54    55    1
     4    55    58    1
     5    58    59    1
     6    48    47    2
     7    47    46    1
     8    59    61    1
     9    59    60    1
    10    45    46    1
    11    65    64    2
    12    85    84   ar
    13    46    49    1
    14    64    63    1
    15    86    84   ar
    16    84    83    1
    17    82    83    1
    18    82    79    1
    19    70    71    1
    20    78    79    1
    21    78    72   am
    22    71    72    1
    23    71    74    1
    24    49    50    1
    25   155   153   ar
    26   155   156   ar
    27    77    75    1
    28    79    80    1
    29   153   151   ar
    30    72    73    2
    31    63    62    1
    32    63    66    1
    33   156   154   ar
    34   151   150    1
    35   151   152   ar
    36    75    74    1
    37    75    76    1
    38    50    51    1
    39   150   147    1
    40   154   152   ar
    41    68    66    1
    42    66    67    1
    43   149   148    2
    44    80    87   am
    45    80    81    2
    46    67    69    1
    47    51    52   ar
    48    51    53   ar
    49    87    88    1
    50    34    33    2
    51   147   148    1
    52   147   146    1
    53    39    38    2
    54    31    32    1
    55   146   140   am
    56    33    32    1
    57    36    37    1
    58    88    89    1
    59    88    91    1
    60    90    89    2
    61    38    37    1
    62    40    37    1
    63    40    41    1
    64    32    35    1
    65    42    41    1
    66    42    43    1
    67    91    92    1
    68   140   141    2
    69   140   139    1
    70    44    43    1
    71   138   139    1
    72   138   132   am
    73   131   130    1
    74   131   132    1
    75   131   134    1
    76   139   142    1
    77   132   133    2
    78   136   134    1
    79    92    93    1
    80   134   135    1
    81    97    95    1
    82    94    95    2
    83    94    93    1
    84   144   143   ar
    85    95    96    1
    86   142   143    1
    87    16    15    2
    88   143   145   ar
    89   128   127    1
    90   135   137    1
    91    29    28    1
    92    30    28    1
    93   125   124    2
    94   126   127    1
    95   126   123    1
    96   127   129    1
    97    15    14    1
    98    25    28    1
    99    25    26    1
   100    25    24    1
   101    17    14    1
   102    17    18    1
   103    14    13    1
   104   122   123    1
   105   124   123    1
   106    26    27    2
   107   104   102    1
   108     7     6    1
   109   102   103    1
   110   102    99    1
   111    19    18   ar
   112    19    21   ar
   113    18    20   ar
   114    21    23   ar
   115    99    98    1
   116    99   100    1
   117     6     5    1
   118     6     8    1
   119    20    22   ar
   120     5     2    1
   121    23    22   ar
   122   100   105   am
   123   100   101    2
   124    12    11    2
   125     1     2    1
   126   105   106    1
   127   108   107    2
   128     2     3    1
   129     9     3   am
   130     9    10    1
   131   118   115    1
   132   118   119    1
   133   107   114   am
   134   107   106    1
   135   115   114    1
   136   115   116    1
   137    11    10    1
   138     3     4    2
   139   106   109    1
   140   116   117    2
   141   119   121   ar
   142   119   120   ar
   143   109   110    1
   144   110   111    1
   145   112   111    2
   146   111   113   am
