@<TRIPOS>MOLECULE
tmp/1yy4B01.pdb
 164 152 0 0 0
SMALL
GASTEIGER

@<TRIPOS>ATOM
      1  N         31.7050   24.0230    4.8680 N.3    33  MET33      -0.1245
      2  CA        31.8440   25.3330    5.4820 C.3    33  MET33       0.1570
      3  C         31.7790   26.3590    4.3630 C.2    33  MET33       0.2261
      4  O         31.3310   27.4860    4.5580 O.2    33  MET33      -0.2867
      5  CB        33.1850   25.4430    6.2140 C.3    33  MET33       0.0387
      6  CG        33.2590   24.6640    7.5190 C.3    33  MET33       0.0595
      7  SD        32.0860   25.2600    8.7670 S.3    33  MET33      -0.1393
      8  CE        30.6780   24.2050    8.4210 C.3    33  MET33       0.0692
      9  N         28.0720   26.8340    3.5880 N.3    36  LEU36      -0.1231
     10  CA        27.3550   27.4820    4.6730 C.3    36  LEU36       0.1693
     11  C         27.7530   28.9390    4.8210 C.2    36  LEU36       0.2592
     12  O         26.9160   29.7880    5.1250 O.2    36  LEU36      -0.2718
     13  CB        27.5930   26.7400    5.9930 C.3    36  LEU36       0.0284
     14  CG        27.0020   25.3290    6.0830 C.3    36  LEU36       0.0019
     15  CD1       27.2260   24.7600    7.4720 C.3    36  LEU36       0.0001
     16  CD2       25.5200   25.3760    5.7670 C.3    36  LEU36       0.0001
     17  N         29.0300   29.2320    4.6050 N.am   37  THR37      -0.1953
     18  CA        29.5110   30.6010    4.7280 C.3    37  THR37       0.1897
     19  C         29.0400   31.4500    3.5550 C.2    37  THR37       0.2313
     20  O         28.7410   32.6360    3.7150 O.2    37  THR37      -0.2863
     21  CB        31.0320   30.6440    4.8010 C.3    37  THR37       0.1794
     22  OG1       31.5800   29.9160    3.6970 O.3    37  THR37      -0.2208
     23  CG2       31.5120   30.0350    6.1070 C.3    37  THR37       0.0378
     24  N         26.2500   30.8690    1.7530 N.3    39  LEU39      -0.1231
     25  CA        24.8180   31.0450    1.9350 C.3    39  LEU39       0.1693
     26  C         24.5380   32.1730    2.9170 C.2    39  LEU39       0.2591
     27  O         23.7400   33.0700    2.6350 O.2    39  LEU39      -0.2718
     28  CB        24.1800   29.7480    2.4460 C.3    39  LEU39       0.0284
     29  CG        22.7060   29.8700    2.8480 C.3    39  LEU39       0.0019
     30  CD1       21.8900   30.3580    1.6570 C.3    39  LEU39       0.0001
     31  CD2       22.1920   28.5390    3.3470 C.3    39  LEU39       0.0001
     32  N         25.2050   32.1190    4.0660 N.am   40  ALA40      -0.1980
     33  CA        25.0430   33.1230    5.1050 C.3    40  ALA40       0.1597
     34  C         25.3320   34.5260    4.5860 C.2    40  ALA40       0.2287
     35  O         24.5690   35.4550    4.8380 O.2    40  ALA40      -0.2864
     36  CB        25.9560   32.8080    6.2720 C.3    40  ALA40       0.0319
     37  N         22.5460   35.6700    2.3610 N.3    43  GLU43      -0.1245
     38  CA        21.3360   35.8830    3.1370 C.3    43  GLU43       0.1567
     39  C         21.4490   37.1410    3.9890 C.2    43  GLU43       0.2260
     40  O         20.4450   37.7960    4.2750 O.2    43  GLU43      -0.2867
     41  CB        21.0520   34.6730    4.0260 C.3    43  GLU43       0.0388
     42  CG        20.4480   33.4890    3.2890 C.3    43  GLU43       0.1160
     43  CD        20.2220   32.3050    4.2060 C.2    43  GLU43       0.3649
     44  OE1       21.2150   31.7920    4.7570 O.co2  43  GLU43      -0.2457
     45  OE2       19.0590   31.8880    4.3820 O.co2  43  GLU43      -0.2457
     46  N         22.8650   35.8730   13.4690 N.3    74  MET74      -0.1245
     47  CA        22.8690   34.4160   13.4040 C.3    74  MET74       0.1570
     48  C         21.5100   33.8330   13.8170 C.2    74  MET74       0.2261
     49  O         21.0490   32.8440   13.2490 O.2    74  MET74      -0.2867
     50  CB        23.9880   33.8500   14.2770 C.3    74  MET74       0.0387
     51  CG        24.1410   32.3460   14.1720 C.3    74  MET74       0.0595
     52  SD        24.2610   31.7680   12.4580 S.3    74  MET74      -0.1393
     53  CE        26.0530   31.7650   12.2310 C.3    74  MET74       0.0692
     54  N         19.1040   34.2050   11.0410 N.3    77  LEU77      -0.1231
     55  CA        19.4110   33.2180   10.0180 C.3    77  LEU77       0.1693
     56  C         18.8630   31.8560   10.4260 C.2    77  LEU77       0.2591
     57  O         18.1440   31.2090    9.6660 O.2    77  LEU77      -0.2718
     58  CB        20.9170   33.1010    9.8140 C.3    77  LEU77       0.0284
     59  CG        21.6590   34.2080    9.0680 C.3    77  LEU77       0.0019
     60  CD1       23.1340   33.8180    8.9560 C.3    77  LEU77       0.0001
     61  CD2       21.0500   34.4180    7.6840 C.3    77  LEU77       0.0001
     62  N         19.2030   31.4250   11.6350 N.am   78  MET78      -0.1979
     63  CA        18.7570   30.1280   12.1250 C.3    78  MET78       0.1605
     64  C         17.2460   30.0300   12.3320 C.2    78  MET78       0.2287
     65  O         16.6770   28.9480   12.2090 O.2    78  MET78      -0.2864
     66  CB        19.5170   29.7710   13.4070 C.3    78  MET78       0.0413
     67  CG        21.0180   29.5930   13.1630 C.3    78  MET78       0.0598
     68  SD        21.9790   29.1620   14.6320 S.3    78  MET78      -0.1393
     69  CE        21.3850   30.4080   15.7220 C.3    78  MET78       0.0692
     70  N         16.1030   29.3990    8.9400 N.3    81  LEU81      -0.1245
     71  CA        16.4680   28.0230    8.6260 C.3    81  LEU81       0.1561
     72  C         15.4440   27.0590    9.2120 C.2    81  LEU81       0.2260
     73  O         14.7960   26.3110    8.4790 O.2    81  LEU81      -0.2867
     74  CB        17.8520   27.6920    9.1950 C.3    81  LEU81       0.0270
     75  CG        18.2970   26.2280    9.0890 C.3    81  LEU81       0.0019
     76  CD1       18.4040   25.8220    7.6260 C.3    81  LEU81       0.0001
     77  CD2       19.6350   26.0450    9.7930 C.3    81  LEU81       0.0001
     78  N         12.2120   26.8610    7.5480 N.3    84  ARG84      -0.1245
     79  CA        12.2730   26.1600    6.2720 C.3    84  ARG84       0.1563
     80  C         12.2940   24.6440    6.4190 C.2    84  ARG84       0.2260
     81  O         11.8020   23.9250    5.5460 O.2    84  ARG84      -0.2867
     82  CB        13.5020   26.6110    5.4770 C.3    84  ARG84       0.0307
     83  CG        13.5000   28.0860    5.1110 C.3    84  ARG84       0.0489
     84  CD        14.4050   28.3930    3.9220 C.3    84  ARG84       0.2205
     85  NE        15.8330   28.2840    4.2160 N.pl3  84  ARG84      -0.0865
     86  CZ        16.5060   29.1070    5.0190 C.cat  84  ARG84       0.5346
     87  NH1       15.8830   30.1090    5.6280 N.pl3  84  ARG84       0.1354
     88  NH2       17.8110   28.9400    5.1980 N.pl3  84  ARG84       0.1354
     89  N         18.7620   24.2970    4.3580 N.3    94  PHE94      -0.1241
     90  CA        19.5200   25.5390    4.2700 C.3    94  PHE94       0.1605
     91  C         19.1670   26.2520    2.9760 C.2    94  PHE94       0.2264
     92  O         19.3510   27.4610    2.8540 O.2    94  PHE94      -0.2867
     93  CB        21.0250   25.2730    4.2960 C.3    94  PHE94       0.0534
     94  CG        21.5430   24.8430    5.6330 C.ar   94  PHE94      -0.0203
     95  CD1       21.4650   23.5120    6.0290 C.ar   94  PHE94      -0.0042
     96  CD2       22.1130   25.7740    6.4990 C.ar   94  PHE94      -0.0042
     97  CE1       21.9520   23.1100    7.2690 C.ar   94  PHE94      -0.0003
     98  CE2       22.6030   25.3850    7.7410 C.ar   94  PHE94      -0.0003
     99  CZ        22.5230   24.0490    8.1270 C.ar   94  PHE94      -0.0000
    100  N         30.2240   20.3850   14.3740 N.3   111  ILE111     -0.1245
    101  CA        29.0910   21.1700   13.9100 C.3   111  ILE111      0.1561
    102  C         27.8270   20.3580   14.1540 C.2   111  ILE111      0.2260
    103  O         26.7260   20.9020   14.2310 O.2   111  ILE111     -0.2867
    104  CB        29.2040   21.5230   12.4060 C.3   111  ILE111      0.0252
    105  CG1       28.3890   22.7860   12.1170 C.3   111  ILE111      0.0019
    106  CG2       28.6850   20.3700   11.5460 C.3   111  ILE111      0.0019
    107  CD1       28.5800   23.3460   10.7310 C.3   111  ILE111      0.0001
    108  N         25.6840   21.6490   16.7020 N.3   114  ILE114     -0.1231
    109  CA        24.8590   22.7370   16.1870 C.3   114  ILE114      0.1692
    110  C         23.6620   22.1950   15.4250 C.2   114  ILE114      0.2592
    111  O         22.5240   22.5790   15.6830 O.2   114  ILE114     -0.2718
    112  CB        25.6750   23.6560   15.2360 C.3   114  ILE114      0.0266
    113  CG1       26.7290   24.4210   16.0420 C.3   114  ILE114      0.0019
    114  CG2       24.7350   24.6080   14.4950 C.3   114  ILE114      0.0020
    115  CD1       27.7360   25.0850   15.2660 C.3   114  ILE114      0.0001
    116  N         23.9300   21.3050   14.4770 N.am  115  PHE115     -0.1976
    117  CA        22.8740   20.7050   13.6720 C.3   115  PHE115      0.1639
    118  C         21.8130   20.0340   14.5280 C.2   115  PHE115      0.2290
    119  O         20.6330   20.0530   14.1870 O.2   115  PHE115     -0.2864
    120  CB        23.4640   19.6780   12.7030 C.3   115  PHE115      0.0560
    121  CG        24.0760   20.2870   11.4750 C.ar  115  PHE115     -0.0200
    122  CD1       24.9750   21.3420   11.5750 C.ar  115  PHE115     -0.0042
    123  CD2       23.7540   19.8020   10.2130 C.ar  115  PHE115     -0.0042
    124  CE1       25.5420   21.9040   10.4400 C.ar  115  PHE115     -0.0003
    125  CE2       24.3170   20.3570    9.0690 C.ar  115  PHE115     -0.0003
    126  CZ        25.2120   21.4110    9.1830 C.ar  115  PHE115     -0.0000
    127  N         19.5920   22.5180   16.3700 N.3   118  LEU118     -0.1245
    128  CA        18.8110   23.2160   15.3540 C.3   118  LEU118      0.1561
    129  C         17.5840   22.3740   15.0360 C.2   118  LEU118      0.2260
    130  O         16.4590   22.8780   14.9870 O.2   118  LEU118     -0.2867
    131  CB        19.6340   23.4280   14.0810 C.3   118  LEU118      0.0270
    132  CG        20.6990   24.5290   14.1280 C.3   118  LEU118      0.0019
    133  CD1       21.4750   24.5560   12.8190 C.3   118  LEU118      0.0001
    134  CD2       20.0320   25.8800   14.3840 C.3   118  LEU118      0.0001
    135  N         26.8680   28.7840   17.5310 N.3   200  GLY200     -0.1225
    136  CA        26.9560   28.7650   16.0820 C.3   200  GLY200      0.1811
    137  C         28.0140   29.7480   15.6170 C.2   200  GLY200      0.2280
    138  O         28.7790   29.4640   14.6990 O.2   200  GLY200     -0.2866
    139  N         31.5580   28.6000   16.9590 N.3   203  HIS203     -0.1226
    140  CA        32.0200   27.5810   16.0290 C.3   203  HIS203      0.1752
    141  C         32.5960   28.2370   14.7580 C.2   203  HIS203      0.2595
    142  O         33.6840   27.9090   14.2910 O.2   203  HIS203     -0.2718
    143  CB        30.8480   26.6750   15.6410 C.3   203  HIS203      0.0759
    144  CG        31.2230   25.6000   14.6910 C.ar  203  HIS203      0.0818
    145  ND1       32.0950   24.5810   15.0270 N.ar  203  HIS203     -0.2268
    146  CD2       31.0550   25.4890   13.3620 C.ar  203  HIS203      0.1154
    147  CE1       32.4440   23.9040   13.9550 C.ar  203  HIS203      0.1986
    148  NE2       31.8270   24.4440   12.9140 N.ar  203  HIS203     -0.2212
    149  N         31.8300   29.1650   14.1870 N.am  204  LEU204     -0.1980
    150  CA        32.2600   29.8550   12.9850 C.3   204  LEU204      0.1596
    151  C         33.5900   30.5710   13.2170 C.2   204  LEU204      0.2287
    152  O         34.5050   30.5220   12.3940 O.2   204  LEU204     -0.2864
    153  CB        31.1940   30.8640   12.5400 C.3   204  LEU204      0.0297
    154  CG        31.6060   31.6890   11.3030 C.3   204  LEU204      0.0022
    155  CD1       31.9680   30.7650   10.1540 C.3   204  LEU204      0.0001
    156  CD2       30.4820   32.6010   10.8650 C.3   204  LEU204      0.0001
    157  N         36.4760   28.1310   13.1880 N.3   207  MET207     -0.1245
    158  CA        36.7970   27.7090   11.8370 C.3   207  MET207      0.1570
    159  C         37.7140   28.6960   11.1310 C.2   207  MET207      0.2261
    160  O         38.7030   28.3260   10.5070 O.2   207  MET207     -0.2867
    161  CB        35.5110   27.5260   11.0360 C.3   207  MET207      0.0387
    162  CG        34.7280   26.2850   11.4070 C.3   207  MET207      0.0595
    163  SD        35.7480   24.7980   11.3580 S.3   207  MET207     -0.1393
    164  CE        35.9620   24.5460   13.1140 C.3   207  MET207      0.0692
@<TRIPOS>BOND
     1    30    29    1
     2    24    25    1
     3    25    28    1
     4    25    26    1
     5    37    38    1
     6    28    29    1
     7    27    26    2
     8    29    31    1
     9    92    91    2
    10    26    32   am
    11    91    90    1
    12    38    39    1
    13    38    41    1
    14    42    41    1
    15    42    43    1
    16    19    20    2
    17    19    18    1
    18     9    10    1
    19    22    21    1
    20    84    85    1
    21    84    83    1
    22    39    40    2
    23    32    33    1
    24    43    45   ar
    25    43    44   ar
    26    85    86    2
    27    90    93    1
    28    90    89    1
    29    93    94    1
    30     3     4    2
    31     3     2    1
    32    34    35    2
    33    34    33    1
    34    17    18    1
    35    17    11   am
    36    10    11    1
    37    10    13    1
    38    18    21    1
    39    21    23    1
    40    11    12    2
    41     1     2    1
    42    86    88    1
    43    86    87    1
    44    33    36    1
    45    83    82    1
    46    82    79    1
    47     2     5    1
    48    81    80    2
    49    94    95   ar
    50    94    96   ar
    51    16    14    1
    52    13    14    1
    53    95    97   ar
    54    14    15    1
    55     5     6    1
    56    79    80    1
    57    79    78    1
    58    96    98   ar
    59    97    99   ar
    60     6     7    1
    61    76    75    1
    62    61    59    1
    63    98    99   ar
    64     8     7    1
    65    73    72    2
    66    71    70    1
    67    71    74    1
    68    71    72    1
    69    60    59    1
    70    59    58    1
    71   125   126   ar
    72   125   123   ar
    73    75    74    1
    74    75    77    1
    75   126   124   ar
    76    57    56    2
    77    58    55    1
    78    55    56    1
    79    55    54    1
    80   155   154    1
    81   123   121   ar
    82    56    62   am
    83   124   122   ar
    84   160   159    2
    85   107   105    1
    86   156   154    1
    87   161   162    1
    88   161   158    1
    89   159   158    1
    90   154   153    1
    91   163   162    1
    92   163   164    1
    93   121   122   ar
    94   121   120    1
    95   106   104    1
    96    62    63    1
    97   158   157    1
    98   105   104    1
    99    63    64    1
   100    63    66    1
   101    65    64    2
   102    53    52    1
   103   152   151    2
   104   104   101    1
   105    52    51    1
   106   153   150    1
   107   120   117    1
   108   133   132    1
   109   148   146   ar
   110   148   147   ar
   111   150   151    1
   112   150   149    1
   113    67    66    1
   114    67    68    1
   115    49    48    2
   116   146   144   ar
   117    47    46    1
   118    47    48    1
   119    47    50    1
   120   117   116    1
   121   117   118    1
   122   101   102    1
   123   101   100    1
   124   147   145   ar
   125   131   132    1
   126   131   128    1
   127   132   134    1
   128   102   103    2
   129    51    50    1
   130   149   141   am
   131   119   118    2
   132   142   141    2
   133   116   110   am
   134   114   112    1
   135    68    69    1
   136   144   145   ar
   137   144   143    1
   138   138   137    2
   139   141   140    1
   140   130   129    2
   141   129   128    1
   142   112   113    1
   143   112   109    1
   144   115   113    1
   145   128   127    1
   146   110   111    2
   147   110   109    1
   148   137   136    1
   149   143   140    1
   150   140   139    1
   151   136   135    1
   152   109   108    1
