@<TRIPOS>MOLECULE
tmp/1yy7B00.pdb
 86 83 0 0 0
SMALL
GASTEIGER

@<TRIPOS>ATOM
      1  N        106.3750   16.8860    8.3700 N.3   159  LEU159     -0.1231
      2  CA       106.1910   16.0040    9.5160 C.3   159  LEU159      0.1678
      3  C        107.4380   15.9360   10.4090 C.2   159  LEU159      0.2434
      4  O        107.3180   15.9480   11.6320 O.2   159  LEU159     -0.2733
      5  CB       105.7760   14.5980    9.0630 C.3   159  LEU159      0.0284
      6  CG       104.3700   14.4760    8.4480 C.3   159  LEU159      0.0019
      7  CD1      104.1090   13.0180    8.1230 C.3   159  LEU159      0.0001
      8  CD2      103.3130   14.9890    9.4070 C.3   159  LEU159      0.0001
      9  N        108.6480   15.8820    9.8160 N.am  160  PRO160     -0.2729
     10  CA       109.8720   15.8210   10.6320 C.3   160  PRO160      0.1401
     11  C        110.0390   17.0320   11.5610 C.2   160  PRO160      0.2269
     12  O        110.4030   16.8810   12.7260 O.2   160  PRO160     -0.2865
     13  CB       110.9840   15.7470    9.5810 C.3   160  PRO160      0.0296
     14  CG       110.3340   14.9960    8.4770 C.3   160  PRO160      0.0237
     15  CD       108.9740   15.6610    8.3940 C.3   160  PRO160      0.0939
     16  N        106.4270   14.4130   14.0860 N.3   164  ILE164     -0.1231
     17  CA       105.4580   13.3570   13.8290 C.3   164  ILE164      0.1692
     18  C        106.0520   12.2570   12.9690 C.2   164  ILE164      0.2591
     19  O        106.7440   12.5250   11.9910 O.2   164  ILE164     -0.2718
     20  CB       104.2170   13.9220   13.1090 C.3   164  ILE164      0.0266
     21  CG1      103.4680   14.8770   14.0440 C.3   164  ILE164      0.0019
     22  CG2      103.3050   12.7800   12.6240 C.3   164  ILE164      0.0020
     23  CD1      102.2970   15.5830   13.3850 C.3   164  ILE164      0.0001
     24  N        105.7630   11.0150   13.3320 N.am  165  GLU165     -0.1979
     25  CA       106.2700    9.8580   12.5980 C.3   165  GLU165      0.1602
     26  C        105.0930    8.9110   12.3350 C.2   165  GLU165      0.2287
     27  O        104.3560    8.5690   13.2540 O.2   165  GLU165     -0.2864
     28  CB       107.3270    9.1570   13.4490 C.3   165  GLU165      0.0415
     29  CG       108.1550    8.1160   12.7240 C.3   165  GLU165      0.1163
     30  CD       109.4820    8.6720   12.2500 C.2   165  GLU165      0.3649
     31  OE1      110.2200    9.2330   13.1000 O.co2 165  GLU165     -0.2457
     32  OE2      109.7880    8.5440   11.0370 O.co2 165  GLU165     -0.2457
     33  N        102.5390   10.4190   -0.0090 N.3   178  MET178     -0.1245
     34  CA       103.7020   11.2740    0.1640 C.3   178  MET178      0.1570
     35  C        104.7930   10.9750   -0.8730 C.2   178  MET178      0.2261
     36  O        105.3800   11.8920   -1.4380 O.2   178  MET178     -0.2867
     37  CB       104.2340   11.1120    1.5890 C.3   178  MET178      0.0387
     38  CG       103.2670   11.6480    2.6370 C.3   178  MET178      0.0595
     39  SD       103.6600   11.1050    4.3040 S.3   178  MET178     -0.1393
     40  CE       105.1220   12.0020    4.5410 C.3   178  MET178      0.0692
     41  N        115.0990   19.1870    5.1830 N.3   198  MET198     -0.1230
     42  CA       114.1820   18.4160    6.0210 C.3   198  MET198      0.1702
     43  C        114.1580   16.9110    5.8130 C.2   198  MET198      0.2592
     44  O        113.7640   16.1730    6.7140 O.2   198  MET198     -0.2718
     45  CB       112.7580   18.9570    5.8700 C.3   198  MET198      0.0401
     46  CG       112.5700   20.3730    6.4040 C.3   198  MET198      0.0596
     47  SD       110.9080   21.0930    6.1000 S.3   198  MET198     -0.1393
     48  CE       111.0860   22.7580    6.7270 C.3   198  MET198      0.0692
     49  N        114.5770   16.4590    4.6320 N.am  199  HIS199     -0.1962
     50  CA       114.5640   15.0350    4.3020 C.3   199  HIS199      0.1787
     51  C        115.8570   14.5310    3.6800 C.2   199  HIS199      0.2620
     52  O        116.4710   15.2130    2.8730 O.2   199  HIS199     -0.2715
     53  CB       113.4040   14.7470    3.3510 C.3   199  HIS199      0.0785
     54  CG       112.0660   14.7930    4.0180 C.ar  199  HIS199      0.0821
     55  ND1      111.6100   13.7810    4.8310 N.ar  199  HIS199     -0.2267
     56  CD2      111.0980   15.7390    4.0060 C.ar  199  HIS199      0.1154
     57  CE1      110.4130   14.1000    5.2920 C.ar  199  HIS199      0.1986
     58  NE2      110.0820   15.2820    4.8060 N.ar  199  HIS199     -0.2212
     59  N        116.2410   13.3160    4.0510 N.am  200  LEU200     -0.1963
     60  CA       117.4700   12.7070    3.5620 C.3   200  LEU200      0.1728
     61  C        117.6250   12.7300    2.0390 C.2   200  LEU200      0.2616
     62  O        118.6530   13.1760    1.5230 O.2   200  LEU200     -0.2715
     63  CB       117.5680   11.2600    4.0650 C.3   200  LEU200      0.0311
     64  CG       118.8280   10.4990    3.6330 C.3   200  LEU200      0.0022
     65  CD1      120.0690   11.1880    4.2000 C.3   200  LEU200      0.0001
     66  CD2      118.7440    9.0640    4.1080 C.3   200  LEU200      0.0001
     67  N        116.6030   12.2680    1.3210 N.am  201  LYS201     -0.1977
     68  CA       116.6600   12.2100   -0.1430 C.3   201  LYS201      0.1596
     69  C        116.9180   13.5200   -0.8790 C.2   201  LYS201      0.2287
     70  O        117.4010   13.5040   -2.0100 O.2   201  LYS201     -0.2864
     71  CB       115.3840   11.5690   -0.7020 C.3   201  LYS201      0.0298
     72  CG       115.4750   11.2440   -2.1930 C.3   201  LYS201      0.0038
     73  CD       114.3910   10.2540   -2.6350 C.3   201  LYS201      0.0206
     74  CE       114.6120    9.7940   -4.0810 C.3   201  LYS201      0.1093
     75  NZ       113.6030    8.7820   -4.5090 N.3   201  LYS201     -0.1314
     76  N        118.3980   16.3010    0.8950 N.3   203  ARG203     -0.1245
     77  CA       119.4640   16.9650    1.6410 C.3   203  ARG203      0.1563
     78  C        120.8100   16.9050    0.9210 C.2   203  ARG203      0.2260
     79  O        121.2400   15.8410    0.4710 O.2   203  ARG203     -0.2867
     80  CB       119.5860   16.3260    3.0260 C.3   203  ARG203      0.0307
     81  CG       120.6240   16.9470    3.9420 C.3   203  ARG203      0.0489
     82  CD       120.5720   16.2260    5.2770 C.3   203  ARG203      0.2205
     83  NE       119.2140   16.2850    5.7840 N.pl3 203  ARG203     -0.0865
     84  CZ       118.5520   15.2750    6.3380 C.cat 203  ARG203      0.5346
     85  NH1      119.1140   14.0800    6.4840 N.pl3 203  ARG203      0.1354
     86  NH2      117.2920   15.4640    6.7180 N.pl3 203  ARG203      0.1354
@<TRIPOS>BOND
     1    75    74    1
     2    74    73    1
     3    73    72    1
     4    72    71    1
     5    70    69    2
     6    36    35    2
     7    69    68    1
     8    35    34    1
     9    71    68    1
    10    68    67    1
    11    33    34    1
    12    34    37    1
    13    79    78    2
    14    76    77    1
    15    78    77    1
    16    67    61   am
    17    62    61    2
    18    37    38    1
    19    77    80    1
    20    61    60    1
    21    38    39    1
    22    52    51    2
    23    80    81    1
    24    53    54    1
    25    53    50    1
    26    60    59    1
    27    60    63    1
    28    64    63    1
    29    64    66    1
    30    64    65    1
    31    51    59   am
    32    51    50    1
    33    81    82    1
    34    56    54   ar
    35    56    58   ar
    36    54    55   ar
    37    50    49    1
    38    39    40    1
    39    49    43   am
    40    58    57   ar
    41    55    57   ar
    42    41    42    1
    43    82    83    1
    44    83    84    2
    45    43    42    1
    46    43    44    2
    47    45    42    1
    48    45    46    1
    49    47    46    1
    50    47    48    1
    51    84    85    1
    52    84    86    1
    53     7     6    1
    54     1     2    1
    55    15    14    1
    56    15     9    1
    57     6     5    1
    58     6     8    1
    59    14    13    1
    60     5     2    1
    61     2     3    1
    62    13    10    1
    63     9     3   am
    64     9    10    1
    65     3     4    2
    66    10    11    1
    67    32    30   ar
    68    11    12    2
    69    19    18    2
    70    30    29    1
    71    30    31   ar
    72    26    25    1
    73    26    27    2
    74    25    24    1
    75    25    28    1
    76    22    20    1
    77    29    28    1
    78    18    24   am
    79    18    17    1
    80    20    17    1
    81    20    21    1
    82    23    21    1
    83    17    16    1
