@<TRIPOS>MOLECULE
tmp/1yyeA01.pdb
 164 152 0 0 0
SMALL
GASTEIGER

@<TRIPOS>ATOM
      1  N         37.4070   40.1470   43.0410 N.3    33  MET33      -0.1245
      2  CA        37.2530   38.9030   42.3100 C.3    33  MET33       0.1570
      3  C         37.2020   37.6560   43.1860 C.2    33  MET33       0.2261
      4  O         36.4650   36.7170   42.8830 O.2    33  MET33      -0.2867
      5  CB        38.3580   38.7840   41.2580 C.3    33  MET33       0.0387
      6  CG        38.3300   39.9270   40.2540 C.3    33  MET33       0.0595
      7  SD        36.6490   40.2830   39.6580 S.3    33  MET33      -0.1393
      8  CE        36.3170   38.8050   38.7430 C.3    33  MET33       0.0692
      9  N         33.7190   37.6440   44.6750 N.3    36  LEU36      -0.1231
     10  CA        32.7040   37.2370   43.7000 C.3    36  LEU36       0.1693
     11  C         32.7010   35.7280   43.5030 C.2    36  LEU36       0.2592
     12  O         31.6480   35.1010   43.4220 O.2    36  LEU36      -0.2718
     13  CB        32.9450   37.9160   42.3460 C.3    36  LEU36       0.0284
     14  CG        32.6440   39.4150   42.2350 C.3    36  LEU36       0.0019
     15  CD1       32.8750   39.8810   40.8030 C.3    36  LEU36       0.0001
     16  CD2       31.2080   39.6810   42.6420 C.3    36  LEU36       0.0001
     17  N         33.8900   35.1430   43.4170 N.am   37  THR37      -0.1953
     18  CA        34.0010   33.7070   43.2180 C.3    37  THR37       0.1897
     19  C         33.5490   32.9720   44.4780 C.2    37  THR37       0.2313
     20  O         32.8080   31.9960   44.4100 O.2    37  THR37      -0.2863
     21  CB        35.4490   33.3060   42.8730 C.3    37  THR37       0.1794
     22  OG1       36.2930   33.5390   44.0050 O.3    37  THR37      -0.2208
     23  CG2       35.9600   34.1360   41.7090 C.3    37  THR37       0.0378
     24  N         31.4690   33.9960   46.7030 N.3    39  LEU39      -0.1231
     25  CA        30.0210   34.1630   46.8460 C.3    39  LEU39       0.1693
     26  C         29.2990   33.1910   45.9160 C.2    39  LEU39       0.2591
     27  O         28.3720   32.5050   46.3250 O.2    39  LEU39      -0.2718
     28  CB        29.6080   35.6040   46.5110 C.3    39  LEU39       0.0284
     29  CG        28.1040   35.9250   46.4370 C.3    39  LEU39       0.0019
     30  CD1       27.4460   35.6610   47.7870 C.3    39  LEU39       0.0001
     31  CD2       27.8920   37.3620   46.0220 C.3    39  LEU39       0.0001
     32  N         29.7400   33.1380   44.6630 N.am   40  ALA40      -0.1980
     33  CA        29.1450   32.2490   43.6770 C.3    40  ALA40       0.1597
     34  C         29.1870   30.7850   44.1340 C.2    40  ALA40       0.2287
     35  O         28.2440   30.0390   43.9060 O.2    40  ALA40      -0.2864
     36  CB        29.8570   32.4020   42.3470 C.3    40  ALA40       0.0319
     37  N         26.5330   30.3830   46.8730 N.3    43  GLU43      -0.1245
     38  CA        25.1870   30.4100   46.3080 C.3    43  GLU43       0.1567
     39  C         24.8530   29.1510   45.5150 C.2    43  GLU43       0.2260
     40  O         23.6830   28.7550   45.4400 O.2    43  GLU43      -0.2867
     41  CB        25.0030   31.6320   45.4160 C.3    43  GLU43       0.0388
     42  CG        25.0370   32.9420   46.1640 C.3    43  GLU43       0.1160
     43  CD        24.6290   34.1030   45.2860 C.2    43  GLU43       0.3649
     44  OE1       23.4150   34.3710   45.1540 O.co2  43  GLU43      -0.2457
     45  OE2       25.5310   34.7300   44.7050 O.co2  43  GLU43      -0.2457
     46  N         24.7560   30.1430   36.1040 N.3    74  MET74      -0.1245
     47  CA        25.1380   31.5480   36.1550 C.3    74  MET74       0.1570
     48  C         23.9340   32.4390   35.8510 C.2    74  MET74       0.2261
     49  O         23.8160   33.5120   36.4080 O.2    74  MET74      -0.2867
     50  CB        26.2890   31.8720   35.1960 C.3    74  MET74       0.0387
     51  CG        26.7140   33.3470   35.2440 C.3    74  MET74       0.0595
     52  SD        27.5010   33.8560   36.8120 S.3    74  MET74      -0.1393
     53  CE        29.2210   33.3630   36.4310 C.3    74  MET74       0.0692
     54  N         21.9850   32.7680   39.0600 N.3    77  LEU77      -0.1231
     55  CA        22.6650   33.6500   40.0110 C.3    77  LEU77       0.1693
     56  C         22.4180   35.1070   39.6330 C.2    77  LEU77       0.2591
     57  O         22.0710   35.9360   40.4820 O.2    77  LEU77      -0.2718
     58  CB        24.1750   33.3890   40.0250 C.3    77  LEU77       0.0284
     59  CG        24.7010   32.1030   40.6770 C.3    77  LEU77       0.0019
     60  CD1       26.2170   32.0760   40.5710 C.3    77  LEU77       0.0001
     61  CD2       24.2780   32.0430   42.1350 C.3    77  LEU77       0.0001
     62  N         22.5850   35.4320   38.3560 N.am   78  MET78      -0.1979
     63  CA        22.3850   36.8120   37.9330 C.3    78  MET78       0.1605
     64  C         20.9390   37.2920   37.9880 C.2    78  MET78       0.2287
     65  O         20.6890   38.4870   38.1090 O.2    78  MET78      -0.2864
     66  CB        22.9730   37.0170   36.5460 C.3    78  MET78       0.0413
     67  CG        24.5020   36.8850   36.5520 C.3    78  MET78       0.0598
     68  SD        25.2410   37.2220   34.9490 S.3    78  MET78      -0.1393
     69  CE        23.9640   36.7000   33.9570 C.3    78  MET78       0.0692
     70  N         20.6690   38.2390   41.5020 N.3    81  LEU81      -0.1245
     71  CA        21.4000   39.4940   41.6700 C.3    81  LEU81       0.1561
     72  C         20.5620   40.7000   41.2260 C.2    81  LEU81       0.2260
     73  O         20.6080   41.7550   41.8520 O.2    81  LEU81      -0.2867
     74  CB        22.7010   39.4700   40.8520 C.3    81  LEU81       0.0270
     75  CG        23.3760   40.8330   40.6290 C.3    81  LEU81       0.0019
     76  CD1       23.9220   41.3910   41.9490 C.3    81  LEU81       0.0001
     77  CD2       24.5050   40.6740   39.6050 C.3    81  LEU81       0.0001
     78  N         17.7030   41.4260   43.8050 N.3    84  ARG84      -0.1245
     79  CA        18.2810   42.0630   44.9850 C.3    84  ARG84       0.1563
     80  C         18.6790   43.5060   44.7140 C.2    84  ARG84       0.2260
     81  O         18.5950   44.3560   45.5960 O.2    84  ARG84      -0.2867
     82  CB        19.5120   41.2890   45.4770 C.3    84  ARG84       0.0307
     83  CG        19.2300   39.8680   45.9330 C.3    84  ARG84       0.0489
     84  CD        20.4340   39.2720   46.6680 C.3    84  ARG84       0.2205
     85  NE        21.6190   39.0910   45.8200 N.pl3  84  ARG84      -0.0865
     86  CZ        21.8270   38.0470   45.0210 C.cat  84  ARG84       0.5346
     87  NH1       20.9260   37.0700   44.9410 N.pl3  84  ARG84       0.1354
     88  NH2       22.9540   37.9620   44.3180 N.pl3  84  ARG84       0.1354
     89  N         25.3710   42.1110   45.2200 N.3    94  PHE94      -0.1241
     90  CA        25.7370   40.7020   45.1660 C.3    94  PHE94       0.1605
     91  C         25.3990   40.0730   46.5040 C.2    94  PHE94       0.2264
     92  O         24.9500   38.9290   46.5770 O.2    94  PHE94      -0.2867
     93  CB        27.2260   40.5440   44.8450 C.3    94  PHE94       0.0534
     94  CG        27.5600   40.8310   43.4040 C.ar   94  PHE94      -0.0203
     95  CD1       27.7410   42.1380   42.9630 C.ar   94  PHE94      -0.0042
     96  CD2       27.6380   39.7940   42.4810 C.ar   94  PHE94      -0.0042
     97  CE1       27.9900   42.4090   41.6270 C.ar   94  PHE94      -0.0003
     98  CE2       27.8870   40.0550   41.1350 C.ar   94  PHE94      -0.0003
     99  CZ        28.0620   41.3670   40.7080 C.ar   94  PHE94      -0.0000
    100  N         35.2610   43.3640   33.1630 N.3   111  ILE111     -0.1245
    101  CA        34.1740   43.3750   34.1350 C.3   111  ILE111      0.1561
    102  C         33.1890   44.5210   33.9330 C.2   111  ILE111      0.2260
    103  O         31.9800   44.3060   33.9480 O.2   111  ILE111     -0.2867
    104  CB        34.7320   43.4340   35.5810 C.3   111  ILE111      0.0252
    105  CG1       35.0960   42.0230   36.0470 C.3   111  ILE111      0.0019
    106  CG2       33.7270   44.0800   36.5250 C.3   111  ILE111      0.0019
    107  CD1       33.8980   41.0970   36.2440 C.3   111  ILE111      0.0001
    108  N         30.4450   43.8290   31.6850 N.3   114  ILE114     -0.1231
    109  CA        29.4460   42.9590   32.2320 C.3   114  ILE114      0.1692
    110  C         28.5520   43.7300   33.2130 C.2   114  ILE114      0.2592
    111  O         27.3170   43.7250   33.0640 O.2   114  ILE114     -0.2718
    112  CB        30.1220   41.7310   32.8600 C.3   114  ILE114      0.0266
    113  CG1       30.7380   40.8770   31.7330 C.3   114  ILE114      0.0019
    114  CG2       29.1090   40.9340   33.6320 C.3   114  ILE114      0.0020
    115  CD1       31.6530   39.7860   32.2200 C.3   114  ILE114      0.0001
    116  N         29.1510   44.4520   34.1750 N.am  115  PHE115     -0.1976
    117  CA        28.3670   45.2620   35.1650 C.3   115  PHE115      0.1639
    118  C         27.3580   46.2150   34.5000 C.2   115  PHE115      0.2290
    119  O         26.2200   46.3750   34.9760 O.2   115  PHE115     -0.2864
    120  CB        29.2620   46.1040   36.0990 C.3   115  PHE115      0.0560
    121  CG        29.9760   45.3100   37.1740 C.ar  115  PHE115     -0.0200
    122  CD1       29.9310   43.9290   37.1600 C.ar  115  PHE115     -0.0042
    123  CD2       30.7290   45.9500   38.1750 C.ar  115  PHE115     -0.0042
    124  CE1       30.6140   43.1710   38.1040 C.ar  115  PHE115     -0.0003
    125  CE2       31.4200   45.1980   39.1320 C.ar  115  PHE115     -0.0003
    126  CZ        31.3600   43.8030   39.0920 C.ar  115  PHE115     -0.0000
    127  N         24.4660   44.1400   33.4590 N.3   118  LEU118     -0.1245
    128  CA        23.6890   43.7700   34.6420 C.3   118  LEU118      0.1561
    129  C         22.8710   44.9540   35.1620 C.2   118  LEU118      0.2260
    130  O         21.6900   44.8110   35.5190 O.2   118  LEU118     -0.2867
    131  CB        24.6280   43.2760   35.7470 C.3   118  LEU118      0.0270
    132  CG        25.4330   42.0110   35.4350 C.3   118  LEU118      0.0019
    133  CD1       26.4070   41.7260   36.5730 C.3   118  LEU118      0.0001
    134  CD2       24.4870   40.8370   35.2300 C.3   118  LEU118      0.0001
    135  N         29.4450   36.5050   31.6190 N.3   200  GLY200     -0.1225
    136  CA        29.9440   36.2890   32.9650 C.3   200  GLY200      0.1811
    137  C         30.7580   35.0140   33.0770 C.2   200  GLY200      0.2280
    138  O         31.8010   34.9860   33.7400 O.2   200  GLY200     -0.2866
    139  N         34.1050   35.2280   31.4060 N.3   203  HIS203     -0.1226
    140  CA        35.0300   35.9730   32.2470 C.3   203  HIS203      0.1752
    141  C         35.5690   35.0710   33.3620 C.2   203  HIS203      0.2595
    142  O         36.7750   35.0510   33.6350 O.2   203  HIS203     -0.2718
    143  CB        34.3400   37.2160   32.8300 C.3   203  HIS203      0.0759
    144  CG        35.2930   38.2140   33.4100 C.ar  203  HIS203      0.0818
    145  ND1       35.9310   38.0190   34.6170 N.ar  203  HIS203     -0.2268
    146  CD2       35.7540   39.3930   32.9290 C.ar  203  HIS203      0.1154
    147  CE1       36.7420   39.0360   34.8550 C.ar  203  HIS203      0.1986
    148  NE2       36.6520   39.8820   33.8460 N.ar  203  HIS203     -0.2212
    149  N         34.6790   34.3140   33.9970 N.am  204  LEU204     -0.1980
    150  CA        35.0870   33.4070   35.0600 C.3   204  LEU204      0.1596
    151  C         36.0570   32.3630   34.5090 C.2   204  LEU204      0.2287
    152  O         37.0910   32.0880   35.1160 O.2   204  LEU204     -0.2864
    153  CB        33.8680   32.7000   35.6750 C.3   204  LEU204      0.0297
    154  CG        34.1680   31.5370   36.6360 C.3   204  LEU204      0.0022
    155  CD1       35.0330   32.0350   37.7760 C.3   204  LEU204      0.0001
    156  CD2       32.8640   30.9300   37.1740 C.3   204  LEU204      0.0001
    157  N         39.4870   33.7830   34.1560 N.3   207  MET207     -0.1245
    158  CA        40.1210   33.9520   35.4580 C.3   207  MET207      0.1570
    159  C         40.5950   32.6090   36.0030 C.2   207  MET207      0.2261
    160  O         41.7060   32.5080   36.5340 O.2   207  MET207     -0.2867
    161  CB        39.1580   34.6150   36.4440 C.3   207  MET207      0.0387
    162  CG        38.8650   36.0720   36.1110 C.3   207  MET207      0.0595
    163  SD        40.3460   37.1360   36.1410 S.3   207  MET207     -0.1393
    164  CE        40.8290   37.0960   34.4220 C.3   207  MET207      0.0692
@<TRIPOS>BOND
     1   139   140    1
     2   135   136    1
     3   108   109    1
     4   113   115    1
     5   113   112    1
     6   109   112    1
     7   109   110    1
     8   140   143    1
     9   140   141    1
    10   143   144    1
    11   112   114    1
    12   146   144   ar
    13   146   148   ar
    14   136   137    1
    15   111   110    2
    16   137   138    2
    17   100   101    1
    18   110   116   am
    19   141   142    2
    20   141   149   am
    21   144   145   ar
    22   127   128    1
    23   148   147   ar
    24   102   103    2
    25   102   101    1
    26    69    68    1
    27   149   150    1
    28   101   104    1
    29   157   158    1
    30   116   117    1
    31   164   163    1
    32   118   119    2
    33   118   117    1
    34   151   150    1
    35   151   152    2
    36   145   147   ar
    37   128   129    1
    38   128   131    1
    39    68    67    1
    40   150   153    1
    41   129   130    2
    42   117   120    1
    43    50    51    1
    44    50    47    1
    45   134   132    1
    46    51    52    1
    47   132   131    1
    48   132   133    1
    49   158   159    1
    50   158   161    1
    51   104   105    1
    52   104   106    1
    53   153   154    1
    54    48    47    1
    55    48    49    2
    56   159   160    2
    57   105   107    1
    58   120   121    1
    59    46    47    1
    60   162   163    1
    61   162   161    1
    62    53    52    1
    63    66    67    1
    64    66    63    1
    65   154   156    1
    66   154   155    1
    67   122   121   ar
    68   122   124   ar
    69   121   123   ar
    70    63    64    1
    71    63    62    1
    72    64    65    2
    73   124   126   ar
    74   123   125   ar
    75    62    56   am
    76     8     7    1
    77    54    55    1
    78   126   125   ar
    79    77    75    1
    80    56    55    1
    81    56    57    2
    82     7     6    1
    83    55    58    1
    84    58    59    1
    85     6     5    1
    86    60    59    1
    87    75    74    1
    88    75    76    1
    89    59    61    1
    90    99    98   ar
    91    99    97   ar
    92    15    14    1
    93    74    71    1
    94    98    96   ar
    95    72    71    1
    96    72    73    2
    97     5     2    1
    98    70    71    1
    99    97    95   ar
   100    23    21    1
   101    14    13    1
   102    14    16    1
   103     2     1    1
   104     2     3    1
   105    13    10    1
   106    36    33    1
   107    96    94   ar
   108    21    18    1
   109    21    22    1
   110     4     3    2
   111    95    94   ar
   112    18    17    1
   113    18    19    1
   114    94    93    1
   115    17    11   am
   116    12    11    2
   117    11    10    1
   118    33    34    1
   119    33    32    1
   120    10     9    1
   121    78    79    1
   122    35    34    2
   123    88    86    1
   124    20    19    2
   125    32    26   am
   126    45    43   ar
   127    80    79    1
   128    80    81    2
   129    93    90    1
   130    87    86    1
   131    79    82    1
   132    86    85    2
   133    44    43   ar
   134    90    89    1
   135    90    91    1
   136    43    42    1
   137    41    42    1
   138    41    38    1
   139    40    39    2
   140    82    83    1
   141    39    38    1
   142    85    84    1
   143    26    27    2
   144    26    25    1
   145    83    84    1
   146    31    29    1
   147    38    37    1
   148    29    28    1
   149    29    30    1
   150    91    92    2
   151    28    25    1
   152    24    25    1
