@<TRIPOS>MOLECULE
tmp/1yyfA00.pdb
 166 158 0 0 0
SMALL
GASTEIGER

@<TRIPOS>ATOM
      1  N         71.6790   11.3850  115.0920 N.3    16  HIS16      -0.1226
      2  CA        72.9750   11.7190  115.6780 C.3    16  HIS16       0.1752
      3  C         73.0270   12.5230  116.9770 C.2    16  HIS16       0.2596
      4  O         73.9790   13.2330  117.1730 O.2    16  HIS16      -0.2718
      5  CB        73.8600   12.4010  114.6530 C.3    16  HIS16       0.0759
      6  CG        73.1630   12.6800  113.3730 C.ar   16  HIS16       0.0818
      7  ND1       72.9470   11.7090  112.4290 N.ar   16  HIS16      -0.2268
      8  CD2       72.6110   13.8110  112.8820 C.ar   16  HIS16       0.1154
      9  CE1       72.3070   12.2340  111.3980 C.ar   16  HIS16       0.1986
     10  NE2       72.0980   13.5120  111.6430 N.ar   16  HIS16      -0.2212
     11  N         72.0790   12.3860  117.8910 N.am   17  ILE17      -0.1966
     12  CA        72.0980   13.2040  119.0920 C.3    17  ILE17       0.1727
     13  C         71.3580   12.4750  120.2220 C.2    17  ILE17       0.2616
     14  O         70.2040   12.7770  120.4680 O.2    17  ILE17      -0.2715
     15  CB        71.4570   14.5820  118.8460 C.3    17  ILE17       0.0290
     16  CG1       72.2140   15.3350  117.7510 C.3    17  ILE17       0.0022
     17  CG2       71.4220   15.3910  120.1340 C.3    17  ILE17       0.0023
     18  CD1       71.5160   16.5910  117.2780 C.3    17  ILE17       0.0001
     19  N         71.9800   11.5050  120.9010 N.am   18  ILE18      -0.1977
     20  CA        71.2010   10.5700  121.7450 C.3    18  ILE18       0.1596
     21  C         70.4120   11.3420  122.7310 C.2    18  ILE18       0.2287
     22  O         70.9180   12.2900  123.2670 O.2    18  ILE18      -0.2864
     23  CB        72.1170    9.5660  122.4690 C.3    18  ILE18       0.0276
     24  CG1       72.9080    8.7380  121.4540 C.3    18  ILE18       0.0022
     25  CG2       71.3030    8.6660  123.3850 C.3    18  ILE18       0.0022
     26  CD1       74.0040    7.8980  122.0730 C.3    18  ILE18       0.0001
     27  N         67.4950   13.6710  124.9670 N.3    20  GLN20      -0.1245
     28  CA        67.0650   15.0650  124.9800 C.3    20  GLN20       0.1566
     29  C         65.8570   15.3300  124.1630 C.2    20  GLN20       0.2260
     30  O         65.7410   16.3910  123.5890 O.2    20  GLN20      -0.2867
     31  CB        68.1550   15.8910  124.3950 C.3    20  GLN20       0.0367
     32  CG        69.3440   15.8710  125.2620 C.3    20  GLN20       0.0905
     33  CD        69.1950   16.8650  126.3720 C.2    20  GLN20       0.2608
     34  OE1       70.1250   17.0370  127.1810 O.2    20  GLN20      -0.2717
     35  NE2       68.0120   17.5400  126.4300 N.am   20  GLN20      -0.0878
     36  N         76.6470   21.8610  129.9920 N.3    59  THR59      -0.1203
     37  CA        77.4550   21.9220  128.8180 C.3    59  THR59       0.1994
     38  C         77.8750   20.5440  128.2780 C.2    59  THR59       0.2618
     39  O         78.1090   19.5980  129.0470 O.2    59  THR59      -0.2717
     40  CB        78.5870   22.8380  129.0340 C.3    59  THR59       0.1784
     41  OG1       79.5880   22.5440  128.0700 O.3    59  THR59      -0.2211
     42  CG2       79.2050   22.5070  130.3260 C.3    59  THR59       0.0376
     43  N         77.8950   20.4550  126.9370 N.am   60  GLY60      -0.1942
     44  CA        78.2920   19.2840  126.1750 C.3    60  GLY60       0.2014
     45  C         77.2210   18.2520  126.0950 C.2    60  GLY60       0.2639
     46  O         77.5330   17.0790  126.0800 O.2    60  GLY60      -0.2714
     47  N         75.9710   18.6770  126.0740 N.am   61  VAL61      -0.1963
     48  CA        74.9050   17.7010  126.0810 C.3    61  VAL61       0.1727
     49  C         74.0480   17.8930  124.8990 C.2    61  VAL61       0.2617
     50  O         73.1350   17.1220  124.6190 O.2    61  VAL61      -0.2715
     51  CB        74.0450   17.7680  127.3000 C.3    61  VAL61       0.0290
     52  CG1       74.4290   18.9800  128.1530 C.3    61  VAL61       0.0023
     53  CG2       72.5660   17.6880  126.8930 C.3    61  VAL61       0.0023
     54  N         74.3520   18.9510  124.1980 N.am   62  GLY62      -0.1940
     55  CA        73.9310   18.9530  122.8400 C.3    62  GLY62       0.2014
     56  C         73.3300   20.1850  122.2800 C.2    62  GLY62       0.2639
     57  O         73.1790   20.2440  121.0670 O.2    62  GLY62      -0.2714
     58  N         73.0070   21.1700  123.1090 N.am   63  LYS63      -0.1963
     59  CA        72.4180   22.3950  122.5560 C.3    63  LYS63       0.1728
     60  C         72.9840   22.7680  121.1010 C.2    63  LYS63       0.2617
     61  O         72.2740   22.7960  120.0790 O.2    63  LYS63      -0.2715
     62  CB        72.3910   23.5800  123.5800 C.3    63  LYS63       0.0311
     63  CG        72.8640   23.3620  125.0050 C.3    63  LYS63       0.0038
     64  CD        73.7870   24.5370  125.3970 C.3    63  LYS63       0.0206
     65  CE        74.9900   24.1610  126.3780 C.3    63  LYS63       0.1093
     66  NZ        76.4430   24.7330  126.1860 N.3    63  LYS63      -0.1314
     67  N         74.2700   23.0050  121.0180 N.am   64  THR64      -0.1937
     68  CA        74.8970   23.2560  119.7560 C.3    64  THR64       0.2028
     69  C         74.5400   22.1780  118.7600 C.2    64  THR64       0.2642
     70  O         73.8780   22.4430  117.7820 O.2    64  THR64      -0.2714
     71  CB        76.3940   23.3070  120.0220 C.3    64  THR64       0.1808
     72  OG1       76.5930   23.8470  121.3570 O.3    64  THR64      -0.2208
     73  CG2       77.1340   24.2850  119.0800 C.3    64  THR64       0.0379
     74  N         74.9380   20.9490  119.0140 N.am   65  GLU65      -0.1976
     75  CA        74.7750   19.9390  117.9810 C.3    65  GLU65       0.1602
     76  C         73.3430   19.6440  117.6120 C.2    65  GLU65       0.2287
     77  O         73.0840   19.1860  116.5110 O.2    65  GLU65      -0.2864
     78  CB        75.4510   18.6330  118.3500 C.3    65  GLU65       0.0415
     79  CG        75.5570   17.6740  117.1650 C.3    65  GLU65       0.1163
     80  CD        77.0080   17.3980  116.6980 C.2    65  GLU65       0.3649
     81  OE1       77.3410   16.2140  116.4720 O.co2  65  GLU65      -0.2457
     82  OE2       77.8520   18.3300  116.5130 O.co2  65  GLU65      -0.2457
     83  N         73.0290   22.6600  115.2360 N.3    68  ARG68      -0.1245
     84  CA        73.8900   22.4240  114.1330 C.3    68  ARG68       0.1563
     85  C         73.1790   21.5020  113.1120 C.2    68  ARG68       0.2260
     86  O         73.1720   21.7390  111.8680 O.2    68  ARG68      -0.2867
     87  CB        75.2010   21.8280  114.6520 C.3    68  ARG68       0.0307
     88  CG        76.3060   21.8300  113.5830 C.3    68  ARG68       0.0489
     89  CD        77.7250   21.7880  114.1430 C.3    68  ARG68       0.2205
     90  NE        78.5700   22.9520  113.7780 N.pl3  68  ARG68      -0.0865
     91  CZ        79.1950   23.7570  114.6800 C.cat  68  ARG68       0.5346
     92  NH1       79.0330   23.5210  116.0270 N.pl3  68  ARG68       0.1354
     93  NH2       79.9750   24.7910  114.2390 N.pl3  68  ARG68       0.1354
     94  N         75.3920   31.6260  121.0140 N.3   221  ASP221     -0.1239
     95  CA        75.8140   30.7860  122.1000 C.3   221  ASP221      0.1674
     96  C         76.1610   31.5220  123.3510 C.2   221  ASP221      0.2266
     97  O         76.9910   32.4350  123.3550 O.2   221  ASP221     -0.2867
     98  CB        76.9610   29.8410  121.7330 C.3   221  ASP221      0.1410
     99  CG        77.2350   28.7820  122.8440 C.2   221  ASP221      0.3668
    100  OD1       77.9830   27.8060  122.5790 O.co2 221  ASP221     -0.2456
    101  OD2       76.7470   28.8330  124.0100 O.co2 221  ASP221     -0.2456
    102  N         73.5530   14.0850  130.3040 N.3   300  LEU300     -0.1245
    103  CA        73.5340   12.7210  129.8100 C.3   300  LEU300      0.1561
    104  C         73.9850   11.7170  130.8450 C.2   300  LEU300      0.2260
    105  O         74.6120   12.1060  131.7880 O.2   300  LEU300     -0.2867
    106  CB        74.4860   12.6530  128.6320 C.3   300  LEU300      0.0270
    107  CG        74.5090   13.9440  127.8240 C.3   300  LEU300      0.0019
    108  CD1       75.0390   15.0580  128.7020 C.3   300  LEU300      0.0001
    109  CD2       75.3390   13.7890  126.5560 C.3   300  LEU300      0.0001
    110  N         75.9930    7.1830  122.9990 N.3   308  ILE308     -0.1245
    111  CA        76.7860    8.1050  122.1790 C.3   308  ILE308      0.1561
    112  C         78.0120    7.4090  121.6620 C.2   308  ILE308      0.2260
    113  O         78.4940    7.6830  120.5860 O.2   308  ILE308     -0.2867
    114  CB        77.1960    9.3580  122.9750 C.3   308  ILE308      0.0252
    115  CG1       75.9560   10.1090  123.4640 C.3   308  ILE308      0.0019
    116  CG2       78.0780   10.2620  122.1280 C.3   308  ILE308      0.0019
    117  CD1       76.2610   11.2140  124.4510 C.3   308  ILE308      0.0001
    118  N         75.0730    6.8750  117.6240 N.3   312  PRO312     -0.2116
    119  CA        75.4110    7.8970  116.6420 C.3   312  PRO312      0.1372
    120  C         75.7960    7.2430  115.3610 C.2   312  PRO312      0.2244
    121  O         76.5670    6.2780  115.3300 O.2   312  PRO312     -0.2868
    122  CB        76.6830    8.4980  117.2310 C.3   312  PRO312      0.0268
    123  CG        77.1530    7.4460  118.2860 C.3   312  PRO312      0.0207
    124  CD        75.8580    7.0360  118.8630 C.3   312  PRO312      0.0892
    125  N         81.6450    7.7020  117.1800 N.3   316  ILE316     -0.1245
    126  CA        83.0380    7.8720  117.5560 C.3   316  ILE316      0.1561
    127  C         83.7120    6.5930  117.2210 C.2   316  ILE316      0.2260
    128  O         84.2260    6.4460  116.1170 O.2   316  ILE316     -0.2867
    129  CB        83.1770    8.2950  119.0300 C.3   316  ILE316      0.0252
    130  CG1       82.4570    9.6220  119.2750 C.3   316  ILE316      0.0019
    131  CG2       84.6440    8.3940  119.4200 C.3   316  ILE316      0.0019
    132  CD1       82.3380    9.9920  120.7370 C.3   316  ILE316      0.0001
    133  N         79.5810   15.1360  127.3620 N.3   357  ALA357     -0.1231
    134  CA        79.9010   14.1480  126.3790 C.3   357  ALA357      0.1694
    135  C         81.3360   14.3550  125.9240 C.2   357  ALA357      0.2591
    136  O         81.9730   13.5030  125.2620 O.2   357  ALA357     -0.2718
    137  CB        78.9790   14.3530  125.2440 C.3   357  ALA357      0.0304
    138  N         81.8370   15.5190  126.2850 N.am  358  ARG358     -0.1980
    139  CA        83.0400   15.9510  125.6860 C.3   358  ARG358      0.1597
    140  C         84.0550   14.8880  126.0240 C.2   358  ARG358      0.2287
    141  O         84.5770   14.2240  125.1220 O.2   358  ARG358     -0.2864
    142  CB        83.3900   17.3680  126.1050 C.3   358  ARG358      0.0334
    143  CG        83.4700   18.2820  124.8590 C.3   358  ARG358      0.0492
    144  CD        83.1990   19.7700  125.0680 C.3   358  ARG358      0.2205
    145  NE        82.1920   20.2880  124.1270 N.pl3 358  ARG358     -0.0865
    146  CZ        81.3000   21.2490  124.4240 C.cat 358  ARG358      0.5346
    147  NH1       81.3190   21.7980  125.6440 N.pl3 358  ARG358      0.1354
    148  NH2       80.3930   21.6680  123.5170 N.pl3 358  ARG358      0.1354
    149  N         84.4380   11.7420  126.2810 N.3   360  LEU360     -0.1231
    150  CA        84.6510   10.4940  125.6000 C.3   360  LEU360      0.1693
    151  C         85.7680   10.7980  124.6830 C.2   360  LEU360      0.2592
    152  O         86.8420   10.2440  124.8270 O.2   360  LEU360     -0.2718
    153  CB        83.4250   10.0560  124.8550 C.3   360  LEU360      0.0284
    154  CG        82.3300    9.9950  125.8910 C.3   360  LEU360      0.0019
    155  CD1       81.5140   11.1440  125.5970 C.3   360  LEU360      0.0001
    156  CD2       81.4960    8.7620  125.8360 C.3   360  LEU360      0.0001
    157  N         85.5330   11.7770  123.8150 N.am  361  HIS361     -0.1976
    158  CA        86.4910   12.1800  122.7730 C.3   361  HIS361      0.1656
    159  C         87.9050   12.0440  123.2830 C.2   361  HIS361      0.2291
    160  O         88.7620   11.4520  122.5990 O.2   361  HIS361     -0.2864
    161  CB        86.2410   13.6240  122.2120 C.3   361  HIS361      0.0771
    162  CG        85.2190   13.6910  121.0860 C.ar  361  HIS361      0.0820
    163  ND1       83.9890   14.3290  121.2120 N.ar  361  HIS361     -0.2267
    164  CD2       85.2380   13.1780  119.8150 C.ar  361  HIS361      0.1154
    165  CE1       83.3070   14.2090  120.0720 C.ar  361  HIS361      0.1986
    166  NE2       84.0420   13.5240  119.2030 N.ar  361  HIS361     -0.2212
@<TRIPOS>BOND
     1     9    10   ar
     2     9     7   ar
     3    10     8   ar
     4    86    85    2
     5     7     6   ar
     6     8     6   ar
     7    85    84    1
     8     6     5    1
     9    88    89    1
    10    88    87    1
    11    90    89    1
    12    90    91    2
    13    84    87    1
    14    84    83    1
    15    93    91    1
    16     5     2    1
    17    91    92    1
    18     1     2    1
    19   121   120    2
    20   120   119    1
    21     2     3    1
    22   128   127    2
    23    81    80   ar
    24    77    76    2
    25    82    80   ar
    26   119   122    1
    27   119   118    1
    28    80    79    1
    29     3     4    2
    30     3    11   am
    31    79    78    1
    32   125   126    1
    33   127   126    1
    34   122   123    1
    35    18    16    1
    36   126   129    1
    37    76    75    1
    38   118   124    1
    39    16    15    1
    40    70    69    2
    41    11    12    1
    42    75    78    1
    43    75    74    1
    44   123   124    1
    45    69    74   am
    46    69    68    1
    47    15    12    1
    48    15    17    1
    49   129   130    1
    50   129   131    1
    51    73    71    1
    52    12    13    1
    53   166   164   ar
    54   166   165   ar
    55   130   132    1
    56    68    71    1
    57    68    67    1
    58   164   162   ar
    59    71    72    1
    60   165   163   ar
    61    61    60    2
    62    13    14    2
    63    13    19   am
    64   113   112    2
    65    19    20    1
    66    94    95    1
    67    67    60   am
    68    57    56    2
    69   162   163   ar
    70   162   161    1
    71    60    59    1
    72    24    26    1
    73    24    23    1
    74   112   111    1
    75    98    95    1
    76    98    99    1
    77    20    23    1
    78    20    21    1
    79    95    96    1
    80   116   114    1
    81   111   114    1
    82   111   110    1
    83   161   158    1
    84    56    55    1
    85    56    58   am
    86    23    25    1
    87    59    58    1
    88    59    62    1
    89   100    99   ar
    90   160   159    2
    91    21    22    2
    92   158   159    1
    93   158   157    1
    94    55    54    1
    95    99   101   ar
    96   114   115    1
    97    96    97    2
    98   115   117    1
    99   148   146    1
   100    62    63    1
   101    30    29    2
   102   157   151   am
   103   145   146    2
   104   145   144    1
   105    29    28    1
   106    54    49   am
   107    31    28    1
   108    31    32    1
   109   146   147    1
   110    50    49    2
   111   151   152    2
   112   151   150    1
   113   153   150    1
   114   153   154    1
   115   143   144    1
   116   143   142    1
   117    49    48    1
   118    27    28    1
   119    63    64    1
   120   141   140    2
   121   137   134    1
   122    32    33    1
   123   136   135    2
   124    64    65    1
   125   155   154    1
   126   150   149    1
   127   139   140    1
   128   139   142    1
   129   139   138    1
   130   156   154    1
   131   135   138   am
   132   135   134    1
   133    47    48    1
   134    47    45   am
   135    46    45    2
   136    48    51    1
   137    45    44    1
   138    44    43    1
   139    66    65    1
   140    33    35   am
   141    33    34    2
   142   134   133    1
   143   109   107    1
   144    53    51    1
   145    43    38   am
   146    51    52    1
   147   107   106    1
   148   107   108    1
   149    41    40    1
   150    38    37    1
   151    38    39    2
   152   106   103    1
   153    37    40    1
   154    37    36    1
   155    40    42    1
   156   103   102    1
   157   103   104    1
   158   104   105    2
