@<TRIPOS>MOLECULE
tmp/1yymA01.pdb
 83 82 0 0 0
SMALL
GASTEIGER

@<TRIPOS>ATOM
      1  N         57.2730   -3.1680   50.7430 N.3    14  TRP14      -0.1241
      2  CA        56.9660   -2.1360   49.7610 C.3    14  TRP14       0.1605
      3  C         57.6510   -2.3510   48.4110 C.2    14  TRP14       0.2264
      4  O         57.3230   -1.6820   47.4370 O.2    14  TRP14      -0.2867
      5  CB        57.3010   -0.7530   50.3290 C.3    14  TRP14       0.0550
      6  CG        56.6910   -0.5270   51.6860 C.ar   14  TRP14       0.0003
      7  CD1       57.3230   -0.6340   52.8950 C.ar   14  TRP14       0.0946
      8  CD2       55.3090   -0.2680   51.9810 C.ar   14  TRP14       0.0152
      9  NE1       56.4250   -0.4670   53.9160 N.ar   14  TRP14      -0.2442
     10  CE2       55.1810   -0.2420   53.3890 C.ar   14  TRP14       0.0810
     11  CE3       54.1640   -0.0610   51.1940 C.ar   14  TRP14       0.0012
     12  CZ2       53.9530   -0.0200   54.0290 C.ar   14  TRP14       0.0191
     13  CZ3       52.9400    0.1600   51.8310 C.ar   14  TRP14       0.0001
     14  CH2       52.8470    0.1790   53.2360 C.ar   14  TRP14       0.0015
     15  N         57.3900   -4.9080   61.2810 N.3    88  ASN88      -0.1240
     16  CA        57.2150   -3.6510   60.5590 C.3    88  ASN88       0.1653
     17  C         57.0180   -3.8320   59.0450 C.2    88  ASN88       0.2266
     18  O         56.5050   -2.9410   58.3600 O.2    88  ASN88      -0.2867
     19  CB        58.4370   -2.7720   60.8220 C.3    88  ASN88       0.1155
     20  CG        58.2110   -1.3300   60.4490 C.2    88  ASN88       0.2627
     21  OD1       57.0700   -0.8650   60.3820 O.2    88  ASN88      -0.2716
     22  ND2       59.3050   -0.6030   60.2480 N.am   88  ASN88      -0.0877
     23  N         59.4190   -4.1010   57.1790 N.3    90  THR90      -0.1203
     24  CA        60.6740   -3.5990   56.6440 C.3    90  THR90       0.1994
     25  C         61.8350   -3.8680   57.6030 C.2    90  THR90       0.2618
     26  O         61.6860   -3.7780   58.8250 O.2    90  THR90      -0.2717
     27  CB        60.5670   -2.0800   56.3550 C.3    90  THR90       0.1784
     28  OG1       61.2660   -1.7720   55.1450 O.3    90  THR90      -0.2211
     29  CG2       61.1550   -1.2630   57.4960 C.3    90  THR90       0.0376
     30  N         62.9860   -4.2180   57.0400 N.am   91  GLY91      -0.1942
     31  CA        64.1580   -4.4830   57.8530 C.3    91  GLY91       0.1998
     32  C         64.4280   -5.9540   58.1000 C.2    91  GLY91       0.2480
     33  O         63.7690   -6.8230   57.5230 O.2    91  GLY91      -0.2729
     34  N         65.4100   -6.2680   58.9560 N.am   92  PRO92      -0.2726
     35  CA        65.7570   -7.6560   59.2730 C.3    92  PRO92       0.1402
     36  C         64.6890   -8.3130   60.1340 C.2    92  PRO92       0.2269
     37  O         64.0550   -7.6620   60.9630 O.2    92  PRO92      -0.2865
     38  CB        67.0870   -7.5140   60.0050 C.3    92  PRO92       0.0296
     39  CG        66.9100   -6.2160   60.7320 C.3    92  PRO92       0.0237
     40  CD        66.3010   -5.3330   59.6670 C.3    92  PRO92       0.0939
     41  N         53.5730    1.7280   56.9980 N.3   128  SER128     -0.1202
     42  CA        53.7240    2.7120   55.9300 C.3   128  SER128      0.2020
     43  C         55.1500    2.6300   55.4320 C.2   128  SER128      0.2619
     44  O         56.0490    2.2710   56.1870 O.2   128  SER128     -0.2717
     45  CB        53.4590    4.1340   56.4500 C.3   128  SER128      0.2103
     46  OG        53.9530    5.1010   55.5330 O.3   128  SER128     -0.2182
     47  N         55.3640    2.9430   54.1620 N.am  129  GLU129     -0.1965
     48  CA        56.7130    2.9030   53.6260 C.3   129  GLU129      0.1733
     49  C         57.5290    3.9840   54.3280 C.2   129  GLU129      0.2616
     50  O         58.7440    3.8670   54.4610 O.2   129  GLU129     -0.2715
     51  CB        56.7070    3.1390   52.1100 C.3   129  GLU129      0.0429
     52  CG        58.1030    3.2730   51.5120 C.3   129  GLU129      0.1163
     53  CD        58.1350    3.0720   50.0070 C.2   129  GLU129      0.3649
     54  OE1       57.3200    3.6960   49.2970 O.co2 129  GLU129     -0.2457
     55  OE2       58.9910    2.2940   49.5320 O.co2 129  GLU129     -0.2457
     56  N         56.8400    5.0260   54.7900 N.am  130  ASN130     -0.1958
     57  CA        57.4780    6.1420   55.4830 C.3   130  ASN130      0.1819
     58  C         56.4080    7.0320   56.1280 C.2   130  ASN130      0.2621
     59  O         55.7730    7.8400   55.4470 O.2   130  ASN130     -0.2715
     60  CB        58.3030    6.9630   54.4900 C.3   130  ASN130      0.1195
     61  CG        58.9970    8.1350   55.1440 C.2   130  ASN130      0.2630
     62  OD1       58.5560    8.6170   56.1870 O.2   130  ASN130     -0.2716
     63  ND2       60.0720    8.6160   54.5280 N.am  130  ASN130     -0.0877
     64  N         56.2140    6.8820   57.4360 N.am  131  PHE131     -0.1974
     65  CA        55.2170    7.6620   58.1630 C.3   131  PHE131      0.1639
     66  C         55.3790    9.1810   58.0470 C.2   131  PHE131      0.2290
     67  O         54.3860    9.9190   58.0320 O.2   131  PHE131     -0.2864
     68  CB        55.2150    7.2780   59.6510 C.3   131  PHE131      0.0560
     69  CG        54.4980    5.9930   59.9510 C.ar  131  PHE131     -0.0200
     70  CD1       55.2030    4.8130   60.1370 C.ar  131  PHE131     -0.0042
     71  CD2       53.1090    5.9640   60.0460 C.ar  131  PHE131     -0.0042
     72  CE1       54.5390    3.6180   60.4160 C.ar  131  PHE131     -0.0003
     73  CE2       52.4360    4.7730   60.3230 C.ar  131  PHE131     -0.0003
     74  CZ        53.1540    3.5990   60.5090 C.ar  131  PHE131     -0.0000
     75  N         52.9150    6.1920   67.0360 N.3   177  GLN177     -0.1245
     76  CA        53.8160    6.5200   65.9260 C.3   177  GLN177      0.1566
     77  C         54.1140    8.0100   65.7730 C.2   177  GLN177      0.2260
     78  O         55.2190    8.3840   65.3800 O.2   177  GLN177     -0.2867
     79  CB        53.2350    6.0250   64.5920 C.3   177  GLN177      0.0367
     80  CG        53.9380    4.8350   63.9360 C.3   177  GLN177      0.0905
     81  CD        55.4180    5.0640   63.6500 C.2   177  GLN177      0.2608
     82  OE1       55.8470    6.1750   63.3310 O.2   177  GLN177     -0.2717
     83  NE2       56.2030    3.9970   63.7430 N.am  177  GLN177     -0.0878
@<TRIPOS>BOND
     1     4     3    2
     2     3     2    1
     3    54    53   ar
     4    55    53   ar
     5     2     5    1
     6     2     1    1
     7    53    52    1
     8     5     6    1
     9    11    13   ar
    10    11     8   ar
    11    52    51    1
    12     6     8   ar
    13     6     7   ar
    14    13    14   ar
    15     8    10   ar
    16    51    48    1
    17     7     9   ar
    18    14    12   ar
    19    10     9   ar
    20    10    12   ar
    21    48    47    1
    22    48    49    1
    23    47    43   am
    24    49    50    2
    25    49    56   am
    26    60    61    1
    27    60    57    1
    28    63    61   am
    29    56    57    1
    30    61    62    2
    31    28    27    1
    32    43    42    1
    33    43    44    2
    34    59    58    2
    35    57    58    1
    36    46    45    1
    37    42    45    1
    38    42    41    1
    39    58    64   am
    40    27    24    1
    41    27    29    1
    42    24    23    1
    43    24    25    1
    44    30    25   am
    45    30    31    1
    46    64    65    1
    47    33    32    2
    48    25    26    2
    49    31    32    1
    50    67    66    2
    51    66    65    1
    52    32    34   am
    53    65    68    1
    54    18    17    2
    55    34    35    1
    56    34    40    1
    57    17    16    1
    58    35    38    1
    59    35    36    1
    60    68    69    1
    61    40    39    1
    62    69    71   ar
    63    69    70   ar
    64    38    39    1
    65    71    73   ar
    66    36    37    2
    67    70    72   ar
    68    22    20   am
    69    73    74   ar
    70    21    20    2
    71    72    74   ar
    72    20    19    1
    73    16    19    1
    74    16    15    1
    75    82    81    2
    76    81    83   am
    77    81    80    1
    78    80    79    1
    79    79    76    1
    80    78    77    2
    81    77    76    1
    82    76    75    1
