@<TRIPOS>MOLECULE
tmp/1yynA00.pdb
 132 125 0 0 0
SMALL
GASTEIGER

@<TRIPOS>ATOM
      1  N        -12.6880  -13.1190   40.3880 N.3   269  LYS269     -0.1245
      2  CA       -13.4340  -14.0560   41.2210 C.3   269  LYS269      0.1561
      3  C        -14.3870  -14.8300   40.3020 C.2   269  LYS269      0.2260
      4  O        -14.2120  -16.0220   40.0670 O.2   269  LYS269     -0.2867
      5  CB       -14.2310  -13.2900   42.2860 C.3   269  LYS269      0.0271
      6  CG       -14.6860  -14.1300   43.4880 C.3   269  LYS269      0.0035
      7  CD       -15.6790  -15.2140   43.0940 C.3   269  LYS269      0.0206
      8  CE       -15.8320  -16.2750   44.1950 C.3   269  LYS269      0.1093
      9  NZ       -16.4330  -15.7540   45.4570 N.3   269  LYS269     -0.1314
     10  N        -19.1460  -10.9450   36.6260 N.3   272  THR272     -0.1203
     11  CA       -20.1120  -10.0600   37.2920 C.3   272  THR272      0.1994
     12  C        -19.5620   -9.6880   38.6670 C.2   272  THR272      0.2618
     13  O        -20.0940   -8.8030   39.3500 O.2   272  THR272     -0.2717
     14  CB       -21.5260  -10.6760   37.5210 C.3   272  THR272      0.1784
     15  OG1      -21.4860  -11.5760   38.6360 O.3   272  THR272     -0.2211
     16  CG2      -22.0330  -11.3860   36.2710 C.3   272  THR272      0.0376
     17  N        -18.4780  -10.3460   39.0660 N.am  273  ASP273     -0.1959
     18  CA       -17.9150  -10.0860   40.3760 C.3   273  ASP273      0.1840
     19  C        -16.6150   -9.2680   40.4120 C.2   273  ASP273      0.2622
     20  O        -16.2330   -8.6400   39.4190 O.2   273  ASP273     -0.2715
     21  CB       -17.7380  -11.4130   41.1180 C.3   273  ASP273      0.1450
     22  CG       -18.1570  -11.3200   42.5670 C.2   273  ASP273      0.3671
     23  OD1      -18.5110  -10.2100   43.0160 O.co2 273  ASP273     -0.2456
     24  OD2      -18.1290  -12.3560   43.2650 O.co2 273  ASP273     -0.2456
     25  N        -15.9570   -9.2850   41.5720 N.am  274  TYR274     -0.1974
     26  CA       -14.7290   -8.5270   41.8150 C.3   274  TYR274      0.1639
     27  C        -13.4040   -9.1640   41.3960 C.2   274  TYR274      0.2290
     28  O        -13.3060  -10.3730   41.1950 O.2   274  TYR274     -0.2864
     29  CB       -14.6370   -8.1790   43.2960 C.3   274  TYR274      0.0560
     30  CG       -14.2500   -9.3490   44.1880 C.ar  274  TYR274     -0.0198
     31  CD1      -12.9060   -9.6390   44.4550 C.ar  274  TYR274     -0.0009
     32  CD2      -15.2270  -10.1370   44.8000 C.ar  274  TYR274     -0.0009
     33  CE1      -12.5520  -10.6690   45.3130 C.ar  274  TYR274      0.0417
     34  CE2      -14.8850  -11.1720   45.6600 C.ar  274  TYR274      0.0417
     35  CZ       -13.5500  -11.4330   45.9160 C.ar  274  TYR274      0.1957
     36  OH       -13.2140  -12.4340   46.7930 O.3   274  TYR274     -0.2866
     37  N        -24.3140    1.0730   40.5650 N.3   339  LYS339     -0.1231
     38  CA       -24.8530    2.0130   41.5400 C.3   339  LYS339      0.1693
     39  C        -25.1190    1.2760   42.8470 C.2   339  LYS339      0.2592
     40  O        -25.6610    0.1670   42.8540 O.2   339  LYS339     -0.2718
     41  CB       -26.1480    2.6540   41.0340 C.3   339  LYS339      0.0285
     42  CG       -26.7720    3.6170   42.0460 C.3   339  LYS339      0.0035
     43  CD       -27.9680    4.3790   41.4710 C.3   339  LYS339      0.0206
     44  CE       -28.5520    5.3030   42.5320 C.3   339  LYS339      0.1093
     45  NZ       -29.5790    6.2360   41.9960 N.3   339  LYS339     -0.1314
     46  N        -24.7270    1.8980   43.9510 N.am  340  ASP340     -0.1960
     47  CA       -24.8980    1.2980   45.2640 C.3   340  ASP340      0.1840
     48  C        -24.2540   -0.0880   45.3140 C.2   340  ASP340      0.2623
     49  O        -24.6070   -0.9250   46.1450 O.2   340  ASP340     -0.2715
     50  CB       -26.3850    1.2210   45.6150 C.3   340  ASP340      0.1450
     51  CG       -27.0430    2.5900   45.6400 C.2   340  ASP340      0.3671
     52  OD1      -26.5310    3.4780   46.3680 O.co2 340  ASP340     -0.2456
     53  OD2      -28.0610    2.7730   44.9320 O.co2 340  ASP340     -0.2456
     54  N        -23.3040   -0.3260   44.4140 N.am  341  GLY341     -0.1940
     55  CA       -22.6150   -1.6000   44.4080 C.3   341  GLY341      0.2014
     56  C        -21.8340   -1.6720   45.7010 C.2   341  GLY341      0.2638
     57  O        -21.4260   -0.6450   46.2250 O.2   341  GLY341     -0.2714
     58  N        -21.6310   -2.8770   46.2210 N.am  342  ASN342     -0.1972
     59  CA       -20.9000   -3.0630   47.4700 C.3   342  ASN342      0.1688
     60  C        -19.6000   -2.2500   47.4860 C.2   342  ASN342      0.2292
     61  O        -18.9160   -2.1220   46.4680 O.2   342  ASN342     -0.2864
     62  CB       -20.6160   -4.5540   47.6740 C.3   342  ASN342      0.1181
     63  CG       -20.0630   -4.8660   49.0530 C.2   342  ASN342      0.2629
     64  OD1      -20.2110   -4.0770   49.9930 O.2   342  ASN342     -0.2716
     65  ND2      -19.4410   -6.0370   49.1870 N.am  342  ASN342     -0.0877
     66  N        -15.8980   -1.2610   45.3440 N.3   350  ILE350     -0.1245
     67  CA       -15.4370   -2.5010   44.7250 C.3   350  ILE350      0.1561
     68  C        -15.8280   -2.5840   43.2400 C.2   350  ILE350      0.2260
     69  O        -17.0050   -2.4970   42.8840 O.2   350  ILE350     -0.2867
     70  CB       -15.9940   -3.7180   45.5120 C.3   350  ILE350      0.0252
     71  CG1      -15.5320   -3.6160   46.9690 C.3   350  ILE350      0.0019
     72  CG2      -15.5020   -5.0370   44.9000 C.3   350  ILE350      0.0019
     73  CD1      -16.4900   -4.2310   47.9550 C.3   350  ILE350      0.0001
     74  N        -16.3300   -4.2240   39.4040 N.3   352  ARG352     -0.1245
     75  CA       -16.9220   -5.4680   38.9260 C.3   352  ARG352      0.1563
     76  C        -16.6420   -5.6790   37.4540 C.2   352  ARG352      0.2260
     77  O        -16.4650   -4.7250   36.6960 O.2   352  ARG352     -0.2867
     78  CB       -18.3540   -5.3910   39.1400 C.3   352  ARG352      0.0307
     79  CG       -18.7470   -5.2500   40.5990 C.3   352  ARG352      0.0489
     80  CD       -20.2430   -5.4410   40.7760 C.3   352  ARG352      0.2205
     81  NE       -20.5560   -6.6090   41.5920 N.pl3 352  ARG352     -0.0865
     82  CZ       -21.3660   -6.5850   42.6430 C.cat 352  ARG352      0.5346
     83  NH1      -21.9460   -5.4480   43.0060 N.pl3 352  ARG352      0.1354
     84  NH2      -21.5970   -7.6960   43.3290 N.pl3 352  ARG352      0.1354
     85  N        -20.6510   -6.9390   35.1400 N.3   355  TYR355     -0.1241
     86  CA       -21.8180   -6.7830   35.9870 C.3   355  TYR355      0.1605
     87  C        -22.9880   -6.5500   35.0260 C.2   355  TYR355      0.2264
     88  O        -22.8710   -5.7550   34.0880 O.2   355  TYR355     -0.2867
     89  CB       -21.6620   -5.5720   36.8990 C.3   355  TYR355      0.0534
     90  CG       -22.7800   -5.4440   37.8960 C.ar  355  TYR355     -0.0201
     91  CD1      -22.7620   -6.1710   39.0860 C.ar  355  TYR355     -0.0009
     92  CD2      -23.8740   -4.6200   37.6400 C.ar  355  TYR355     -0.0009
     93  CE1      -23.8040   -6.0830   39.9980 C.ar  355  TYR355      0.0417
     94  CE2      -24.9260   -4.5180   38.5450 C.ar  355  TYR355      0.0417
     95  CZ       -24.8890   -5.2490   39.7230 C.ar  355  TYR355      0.1957
     96  OH       -25.9260   -5.1430   40.6270 O.3   355  TYR355     -0.2866
     97  N        -26.6750   -6.7470   36.3100 N.3   357  ALA357     -0.1231
     98  CA       -27.9220   -6.8110   37.0530 C.3   357  ALA357      0.1679
     99  C        -28.8960   -5.8480   36.3880 C.2   357  ALA357      0.2434
    100  O        -28.5510   -4.6990   36.1080 O.2   357  ALA357     -0.2733
    101  CB       -27.6940   -6.4130   38.5010 C.3   357  ALA357      0.0304
    102  N        -30.1290   -6.3100   36.1200 N.am  358  PRO358     -0.2729
    103  CA       -31.1780   -5.5070   35.4800 C.3   358  PRO358      0.1401
    104  C        -31.6840   -4.3430   36.3250 C.2   358  PRO358      0.2269
    105  O        -31.9550   -4.4930   37.5160 O.2   358  PRO358     -0.2865
    106  CB       -32.2660   -6.5340   35.1980 C.3   358  PRO358      0.0296
    107  CG       -32.1160   -7.4830   36.3430 C.3   358  PRO358      0.0237
    108  CD       -30.6180   -7.6710   36.3980 C.3   358  PRO358      0.0939
    109  N        -30.0270   -1.8850   37.2760 N.3   360  ILE360     -0.1245
    110  CA       -28.9340   -1.2980   38.0460 C.3   360  ILE360      0.1561
    111  C        -27.9340   -0.5810   37.1430 C.2   360  ILE360      0.2260
    112  O        -27.3620   -1.1750   36.2270 O.2   360  ILE360     -0.2867
    113  CB       -28.1790   -2.3800   38.8500 C.3   360  ILE360      0.0252
    114  CG1      -29.1560   -3.1530   39.7420 C.3   360  ILE360      0.0019
    115  CG2      -27.0880   -1.7330   39.6970 C.3   360  ILE360      0.0019
    116  CD1      -29.7360   -2.3340   40.8770 C.3   360  ILE360      0.0001
    117  N        -14.6310  -10.1450   51.3070 N.3   401  ILE401     -0.1245
    118  CA       -15.9780  -10.0420   50.7530 C.3   401  ILE401      0.1561
    119  C        -16.7060  -11.3410   51.0650 C.2   401  ILE401      0.2260
    120  O        -16.2480  -12.4130   50.6770 O.2   401  ILE401     -0.2867
    121  CB       -15.9460   -9.8460   49.2270 C.3   401  ILE401      0.0252
    122  CG1      -15.2850   -8.5100   48.9000 C.3   401  ILE401      0.0019
    123  CG2      -17.3610   -9.8990   48.6580 C.3   401  ILE401      0.0019
    124  CD1      -15.2040   -8.2260   47.4450 C.3   401  ILE401      0.0001
    125  N        -15.1630  -15.1640   51.5750 N.3   404  ASP404     -0.1239
    126  CA       -14.0020  -15.4760   50.7580 C.3   404  ASP404      0.1674
    127  C        -12.7690  -15.1530   51.5850 C.2   404  ASP404      0.2266
    128  O        -12.8520  -14.4520   52.5920 O.2   404  ASP404     -0.2867
    129  CB       -13.9610  -14.6250   49.4860 C.3   404  ASP404      0.1410
    130  CG       -15.1270  -14.8890   48.5600 C.2   404  ASP404      0.3668
    131  OD1      -15.7110  -15.9960   48.6200 O.co2 404  ASP404     -0.2456
    132  OD2      -15.4440  -13.9870   47.7580 O.co2 404  ASP404     -0.2456
@<TRIPOS>BOND
     1    88    87    2
     2    87    86    1
     3    85    86    1
     4   106   103    1
     5   106   107    1
     6   103   102    1
     7   103   104    1
     8    86    89    1
     9   100    99    2
    10   102    99   am
    11   102   108    1
    12   112   111    2
    13    16    14    1
    14    97    98    1
    15   104   105    2
    16   107   108    1
    17    99    98    1
    18    10    11    1
    19    77    76    2
    20    89    90    1
    21    98   101    1
    22   111   110    1
    23   109   110    1
    24    11    14    1
    25    11    12    1
    26    76    75    1
    27    14    15    1
    28    92    90   ar
    29    92    94   ar
    30    90    91   ar
    31   110   113    1
    32    94    95   ar
    33    12    17   am
    34    12    13    2
    35   113   115    1
    36   113   114    1
    37    75    78    1
    38    75    74    1
    39    17    18    1
    40    91    93   ar
    41    78    79    1
    42    20    19    2
    43    95    93   ar
    44    95    96    1
    45   114   116    1
    46     4     3    2
    47     3     2    1
    48    18    19    1
    49    18    21    1
    50     1     2    1
    51    19    25   am
    52    37    38    1
    53    79    80    1
    54    80    81    1
    55    41    38    1
    56    41    42    1
    57    21    22    1
    58    28    27    2
    59     2     5    1
    60    27    26    1
    61    43    42    1
    62    43    44    1
    63    38    39    1
    64    25    26    1
    65    81    82    2
    66    26    29    1
    67    45    44    1
    68     5     6    1
    69    22    23   ar
    70    22    24   ar
    71    82    83    1
    72    82    84    1
    73    39    40    2
    74    39    46   am
    75    69    68    2
    76     7     6    1
    77     7     8    1
    78    68    67    1
    79    29    30    1
    80    46    47    1
    81    30    31   ar
    82    30    32   ar
    83     8     9    1
    84    55    54    1
    85    55    56    1
    86    54    48   am
    87    31    33   ar
    88    67    66    1
    89    67    70    1
    90    32    34   ar
    91    72    70    1
    92    53    51   ar
    93    47    48    1
    94    47    50    1
    95    33    35   ar
    96    48    49    2
    97    70    71    1
    98    50    51    1
    99    51    52   ar
   100    34    35   ar
   101    56    58   am
   102    56    57    2
   103    35    36    1
   104    58    59    1
   105    61    60    2
   106    71    73    1
   107   124   122    1
   108    59    60    1
   109    59    62    1
   110    62    63    1
   111   132   130   ar
   112   130   131   ar
   113   130   129    1
   114   123   121    1
   115   122   121    1
   116    63    65   am
   117    63    64    2
   118   121   118    1
   119   129   126    1
   120   120   119    2
   121   118   119    1
   122   118   117    1
   123   126   125    1
   124   126   127    1
   125   127   128    2
