@<TRIPOS>MOLECULE
tmp/1yytB00.pdb
 111 103 0 0 0
SMALL
GASTEIGER

@<TRIPOS>ATOM
      1  N         32.5660   68.5250   38.7450 N.3    97  LEU97      -0.1245
      2  CA        33.3620   69.0340   39.8540 C.3    97  LEU97       0.1561
      3  C         33.1920   68.1960   41.1030 C.2    97  LEU97       0.2260
      4  O         34.1540   67.9350   41.8190 O.2    97  LEU97      -0.2867
      5  CB        32.9940   70.4830   40.1770 C.3    97  LEU97       0.0270
      6  CG        33.8080   71.0630   41.3380 C.3    97  LEU97       0.0019
      7  CD1       35.2660   71.0410   40.9320 C.3    97  LEU97       0.0001
      8  CD2       33.3680   72.4830   41.6940 C.3    97  LEU97       0.0001
      9  N         35.2650   64.8350   41.5950 N.3   100  GLU100     -0.1245
     10  CA        36.6470   64.8580   42.0420 C.3   100  GLU100      0.1567
     11  C         36.7350   64.5050   43.5290 C.2   100  GLU100      0.2260
     12  O         37.8050   64.1840   44.0460 O.2   100  GLU100     -0.2867
     13  CB        37.2530   66.2320   41.7810 C.3   100  GLU100      0.0388
     14  CG        37.0230   66.7290   40.3630 C.3   100  GLU100      0.1160
     15  CD        37.9290   67.8990   39.9870 C.2   100  GLU100      0.3649
     16  OE1       38.0120   68.8660   40.7740 O.co2 100  GLU100     -0.2457
     17  OE2       38.5570   67.8610   38.9030 O.co2 100  GLU100     -0.2457
     18  N         46.5440   66.3130   32.0410 N.3   182  ARG182     -0.1245
     19  CA        45.8580   67.6050   32.0860 C.3   182  ARG182      0.1563
     20  C         44.7110   67.6310   31.0970 C.2   182  ARG182      0.2260
     21  O         43.6110   68.0970   31.4100 O.2   182  ARG182     -0.2867
     22  CB        46.8360   68.7590   31.8010 C.3   182  ARG182      0.0307
     23  CG        46.2530   70.1630   32.0230 C.3   182  ARG182      0.0489
     24  CD        45.2190   70.1530   33.1290 C.3   182  ARG182      0.2205
     25  NE        44.8930   71.4900   33.6080 N.pl3 182  ARG182     -0.0865
     26  CZ        43.8910   71.7540   34.4410 C.cat 182  ARG182      0.5346
     27  NH1       43.1080   70.7800   34.8780 N.pl3 182  ARG182      0.1354
     28  NH2       43.6860   72.9900   34.8600 N.pl3 182  ARG182      0.1354
     29  N         41.6060   65.4190   32.1600 N.3   185  ASN185     -0.1225
     30  CA        40.6190   65.9900   33.0790 C.3   185  ASN185      0.1785
     31  C         40.4050   67.5020   32.9930 C.2   185  ASN185      0.2597
     32  O         39.9250   68.1310   33.9510 O.2   185  ASN185     -0.2718
     33  CB        40.9460   65.6080   34.5230 C.3   185  ASN185      0.1169
     34  CG        42.3690   65.9350   34.9040 C.2   185  ASN185      0.2627
     35  OD1       42.8980   67.0010   34.5690 O.2   185  ASN185     -0.2716
     36  ND2       43.0000   65.0180   35.6260 N.am  185  ASN185     -0.0877
     37  N         40.7490   68.0750   31.8420 N.am  186  GLY186     -0.1957
     38  CA        40.5620   69.4970   31.6390 C.3   186  GLY186      0.1869
     39  C         39.1740   69.8260   31.0930 C.2   186  GLY186      0.2309
     40  O         38.7460   70.9790   31.1330 O.2   186  GLY186     -0.2863
     41  N         43.7540   78.4240   33.8390 N.3   225  ASN225     -0.1225
     42  CA        43.3550   78.0580   35.1860 C.3   225  ASN225      0.1785
     43  C         44.5850   77.6460   35.9790 C.2   225  ASN225      0.2597
     44  O         44.7690   78.0830   37.1110 O.2   225  ASN225     -0.2718
     45  CB        42.3450   76.9090   35.1920 C.3   225  ASN225      0.1169
     46  CG        42.1240   76.3400   36.5960 C.2   225  ASN225      0.2627
     47  OD1       42.9070   75.5220   37.0760 O.2   225  ASN225     -0.2716
     48  ND2       41.0720   76.7940   37.2640 N.am  225  ASN225     -0.0877
     49  N         45.4270   76.8020   35.3850 N.am  226  ASP226     -0.1974
     50  CA        46.6360   76.3450   36.0590 C.3   226  ASP226      0.1709
     51  C         47.4820   77.5250   36.5580 C.2   226  ASP226      0.2293
     52  O         48.1680   77.4180   37.5850 O.2   226  ASP226     -0.2864
     53  CB        47.4700   75.4430   35.1270 C.3   226  ASP226      0.1436
     54  CG        47.0470   73.9720   35.1930 C.2   226  ASP226      0.3671
     55  OD1       47.0240   73.4000   36.3070 O.co2 226  ASP226     -0.2456
     56  OD2       46.7440   73.3820   34.1330 O.co2 226  ASP226     -0.2456
     57  N         45.4640   79.5300   39.2930 N.3   229  SER229     -0.1217
     58  CA        45.3900   78.5250   40.3460 C.3   229  SER229      0.1889
     59  C         46.6980   78.2830   41.1120 C.2   229  SER229      0.2288
     60  O         46.6800   77.9450   42.2970 O.2   229  SER229     -0.2866
     61  CB        44.9220   77.2030   39.7310 C.3   229  SER229      0.2089
     62  OG        44.0280   76.5010   40.5730 O.3   229  SER229     -0.2183
     63  N         46.7980   79.0310   45.0510 N.3   232  LYS232     -0.1231
     64  CA        46.2170   78.2400   46.1230 C.3   232  LYS232      0.1693
     65  C         46.7080   76.7990   46.0760 C.2   232  LYS232      0.2591
     66  O         45.9690   75.8710   46.3990 O.2   232  LYS232     -0.2718
     67  CB        44.6920   78.2580   46.0310 C.3   232  LYS232      0.0285
     68  CG        44.1410   77.4890   44.8460 C.3   232  LYS232      0.0035
     69  CD        42.6620   77.2050   45.0170 C.3   232  LYS232      0.0206
     70  CE        42.1440   76.2940   43.9160 C.3   232  LYS232      0.1093
     71  NZ        42.8260   74.9720   43.9250 N.3   232  LYS232     -0.1314
     72  N         47.9570   76.6130   45.6680 N.am  233  GLU233     -0.1979
     73  CA        48.5510   75.2810   45.5870 C.3   233  GLU233      0.1602
     74  C         50.0620   75.3910   45.8150 C.2   233  GLU233      0.2287
     75  O         50.7470   74.3930   46.0470 O.2   233  GLU233     -0.2864
     76  CB        48.2410   74.6630   44.2220 C.3   233  GLU233      0.0415
     77  CG        46.7470   74.4840   43.9740 C.3   233  GLU233      0.1163
     78  CD        46.3870   74.4570   42.4990 C.2   233  GLU233      0.3649
     79  OE1       46.7360   75.4220   41.7860 O.co2 233  GLU233     -0.2457
     80  OE2       45.7490   73.4790   42.0520 O.co2 233  GLU233     -0.2457
     81  N         46.9480   68.7730   47.3600 N.3   239  ASP239     -0.1239
     82  CA        46.6100   68.8270   45.9390 C.3   239  ASP239      0.1674
     83  C         47.9220   68.5780   45.1810 C.2   239  ASP239      0.2266
     84  O         48.1800   69.1570   44.1240 O.2   239  ASP239     -0.2867
     85  CB        46.0550   70.2120   45.5940 C.3   239  ASP239      0.1410
     86  CG        45.8560   70.4060   44.1120 C.2   239  ASP239      0.3668
     87  OD1       45.1310   69.5910   43.4970 O.co2 239  ASP239     -0.2456
     88  OD2       46.4290   71.3800   43.5700 O.co2 239  ASP239     -0.2456
     89  N         37.7210   81.3830   46.1560 N.3   304  ARG304     -0.1231
     90  CA        38.4380   80.1280   45.9810 C.3   304  ARG304      0.1694
     91  C         39.9330   80.3000   45.7060 C.2   304  ARG304      0.2592
     92  O         40.7720   79.7810   46.4350 O.2   304  ARG304     -0.2718
     93  CB        37.8020   79.3620   44.8290 C.3   304  ARG304      0.0321
     94  CG        38.2820   77.9460   44.6590 C.3   304  ARG304      0.0489
     95  CD        37.8920   77.4370   43.2810 C.3   304  ARG304      0.2205
     96  NE        37.9470   75.9830   43.1900 N.pl3 304  ARG304     -0.0865
     97  CZ        37.0920   75.1720   43.8030 C.cat 304  ARG304      0.5346
     98  NH1       36.1150   75.6780   44.5510 N.pl3 304  ARG304      0.1354
     99  NH2       37.2110   73.8570   43.6650 N.pl3 304  ARG304      0.1354
    100  N         40.2630   81.0370   44.6550 N.am  305  TYR305     -0.1976
    101  CA        41.6550   81.2520   44.2700 C.3   305  TYR305      0.1639
    102  C         42.4090   82.2710   45.1170 C.2   305  TYR305      0.2290
    103  O         43.5470   82.6380   44.7970 O.2   305  TYR305     -0.2864
    104  CB        41.6910   81.6500   42.7970 C.3   305  TYR305      0.0560
    105  CG        40.9710   80.6350   41.9550 C.ar  305  TYR305     -0.0198
    106  CD1       41.5940   79.4410   41.5930 C.ar  305  TYR305     -0.0009
    107  CD2       39.6280   80.8100   41.6190 C.ar  305  TYR305     -0.0009
    108  CE1       40.8960   78.4430   40.9260 C.ar  305  TYR305      0.0417
    109  CE2       38.9220   79.8180   40.9540 C.ar  305  TYR305      0.0417
    110  CZ        39.5600   78.6370   40.6140 C.ar  305  TYR305      0.1957
    111  OH        38.8510   77.6420   39.9890 O.3   305  TYR305     -0.2866
@<TRIPOS>BOND
     1    39    40    2
     2    39    38    1
     3    20    21    2
     4    20    19    1
     5    38    37    1
     6    22    23    1
     7    22    19    1
     8    37    31   am
     9    23    24    1
    10    18    19    1
    11    29    30    1
    12    31    30    1
    13    31    32    2
    14    30    33    1
    15    24    25    1
    16    25    26    2
    17    41    42    1
    18    56    54   ar
    19    26    28    1
    20    26    27    1
    21    33    34    1
    22    35    34    2
    23    34    36   am
    24    53    54    1
    25    53    50    1
    26    42    45    1
    27    42    43    1
    28    45    46    1
    29    54    55   ar
    30    49    43   am
    31    49    50    1
    32    43    44    2
    33    50    51    1
    34    51    52    2
    35    46    47    2
    36    46    48   am
    37     1     2    1
    38    17    15   ar
    39    57    58    1
    40    61    58    1
    41    61    62    1
    42     2     5    1
    43     2     3    1
    44    15    14    1
    45    15    16   ar
    46   111   110    1
    47     5     6    1
    48    58    59    1
    49    14    13    1
    50   110   108   ar
    51   110   109   ar
    52   108   106   ar
    53     7     6    1
    54   109   107   ar
    55     3     4    2
    56    59    60    2
    57     6     8    1
    58   106   105   ar
    59     9    10    1
    60   107   105   ar
    61    13    10    1
    62    79    78   ar
    63   105   104    1
    64    10    11    1
    65    80    78   ar
    66    78    77    1
    67   104   101    1
    68    96    95    1
    69    96    97    2
    70    95    94    1
    71    87    86   ar
    72    11    12    2
    73    88    86   ar
    74    99    97    1
    75    97    98    1
    76    70    71    1
    77    70    69    1
    78    77    76    1
    79    86    85    1
    80    84    83    2
    81    76    73    1
    82   101   100    1
    83   101   102    1
    84   100    91   am
    85    94    93    1
    86   103   102    2
    87    93    90    1
    88    68    69    1
    89    68    67    1
    90    63    64    1
    91    83    82    1
    92    73    72    1
    93    73    74    1
    94    85    82    1
    95    72    65   am
    96    91    90    1
    97    91    92    2
    98    74    75    2
    99    82    81    1
   100    90    89    1
   101    67    64    1
   102    65    64    1
   103    65    66    2
