@<TRIPOS>MOLECULE
tmp/1yytB01.pdb
 180 172 0 0 0
SMALL
GASTEIGER

@<TRIPOS>ATOM
      1  N         30.4060   77.7060   42.9560 N.3    69  THR69      -0.1203
      2  CA        31.6130   77.9860   42.1840 C.3    69  THR69       0.1994
      3  C         31.3680   77.7490   40.7060 C.2    69  THR69       0.2617
      4  O         31.8030   78.5440   39.8730 O.2    69  THR69      -0.2717
      5  CB        32.7950   77.1030   42.6110 C.3    69  THR69       0.1784
      6  OG1       33.1490   77.3950   43.9680 O.3    69  THR69      -0.2211
      7  CG2       33.9900   77.3680   41.7260 C.3    69  THR69       0.0376
      8  N         30.6650   76.6620   40.3850 N.am   70  ILE70      -0.1979
      9  CA        30.3940   76.3420   38.9940 C.3    70  ILE70       0.1595
     10  C         29.4490   77.3420   38.3480 C.2    70  ILE70       0.2287
     11  O         29.7150   77.8200   37.2400 O.2    70  ILE70      -0.2864
     12  CB        29.8510   74.8740   38.8330 C.3    70  ILE70       0.0276
     13  CG1       30.9720   73.9410   38.3380 C.3    70  ILE70       0.0022
     14  CG2       28.7810   74.8060   37.7510 C.3    70  ILE70       0.0022
     15  CD1       32.3340   74.1360   38.9880 C.3    70  ILE70       0.0001
     16  N         31.3270   80.5130   37.4290 N.3    73  MET73      -0.1245
     17  CA        32.1630   80.2850   36.2680 C.3    73  MET73       0.1570
     18  C         31.3740   80.2920   34.9610 C.2    73  MET73       0.2261
     19  O         31.7680   80.9370   33.9810 O.2    73  MET73      -0.2867
     20  CB        32.8830   78.9540   36.4030 C.3    73  MET73       0.0387
     21  CG        33.6800   78.5980   35.1780 C.3    73  MET73       0.0595
     22  SD        34.1960   76.8840   35.2690 S.3    73  MET73      -0.1393
     23  CE        32.7520   76.0180   34.5970 C.3    73  MET73       0.0692
     24  N         28.4310   70.8280   34.8440 N.3    93  TYR93      -0.1241
     25  CA        29.7530   71.1300   35.3480 C.3    93  TYR93       0.1605
     26  C         29.8090   70.9830   36.8660 C.2    93  TYR93       0.2264
     27  O         30.8920   70.8440   37.4480 O.2    93  TYR93      -0.2867
     28  CB        30.1970   72.5170   34.8770 C.3    93  TYR93       0.0534
     29  CG        30.5110   72.5550   33.3980 C.ar   93  TYR93      -0.0201
     30  CD1       31.5420   71.7860   32.8680 C.ar   93  TYR93      -0.0009
     31  CD2       29.7680   73.3520   32.5260 C.ar   93  TYR93      -0.0009
     32  CE1       31.8310   71.8050   31.4960 C.ar   93  TYR93       0.0417
     33  CE2       30.0440   73.3840   31.1510 C.ar   93  TYR93       0.0417
     34  CZ        31.0810   72.6100   30.6400 C.ar   93  TYR93       0.1957
     35  OH        31.3890   72.6670   29.2870 O.3    93  TYR93      -0.2866
     36  N         30.5350   67.1640   37.3140 N.3    96  THR96      -0.1203
     37  CA        31.9380   66.8570   37.0940 C.3    96  THR96       0.1994
     38  C         32.7840   67.3040   38.2650 C.2    96  THR96       0.2617
     39  O         33.6160   66.5430   38.7450 O.2    96  THR96      -0.2717
     40  CB        32.4960   67.5010   35.7930 C.3    96  THR96       0.1784
     41  OG1       32.0940   68.8690   35.7160 O.3    96  THR96      -0.2211
     42  CG2       31.9900   66.7680   34.5720 C.3    96  THR96       0.0376
     43  N         32.5660   68.5250   38.7450 N.am   97  LEU97      -0.1979
     44  CA        33.3620   69.0340   39.8540 C.3    97  LEU97       0.1596
     45  C         33.1920   68.1960   41.1030 C.2    97  LEU97       0.2287
     46  O         34.1540   67.9350   41.8190 O.2    97  LEU97      -0.2864
     47  CB        32.9940   70.4830   40.1770 C.3    97  LEU97       0.0297
     48  CG        33.8080   71.0630   41.3380 C.3    97  LEU97       0.0022
     49  CD1       35.2660   71.0410   40.9320 C.3    97  LEU97       0.0001
     50  CD2       33.3680   72.4830   41.6940 C.3    97  LEU97       0.0001
     51  N         35.2650   64.8350   41.5950 N.3   100  GLU100     -0.1245
     52  CA        36.6470   64.8580   42.0420 C.3   100  GLU100      0.1567
     53  C         36.7350   64.5050   43.5290 C.2   100  GLU100      0.2260
     54  O         37.8050   64.1840   44.0460 O.2   100  GLU100     -0.2867
     55  CB        37.2530   66.2320   41.7810 C.3   100  GLU100      0.0388
     56  CG        37.0230   66.7290   40.3630 C.3   100  GLU100      0.1160
     57  CD        37.9290   67.8990   39.9870 C.2   100  GLU100      0.3649
     58  OE1       38.0120   68.8660   40.7740 O.co2 100  GLU100     -0.2457
     59  OE2       38.5570   67.8610   38.9030 O.co2 100  GLU100     -0.2457
     60  N         37.0560   62.8250   31.1390 N.3   157  PHE157     -0.1241
     61  CA        37.1140   63.3470   32.4990 C.3   157  PHE157      0.1605
     62  C         36.9070   62.2470   33.5400 C.2   157  PHE157      0.2264
     63  O         37.5230   62.2660   34.6140 O.2   157  PHE157     -0.2867
     64  CB        36.0510   64.4390   32.6890 C.3   157  PHE157      0.0534
     65  CG        36.0900   65.0960   34.0370 C.ar  157  PHE157     -0.0203
     66  CD1       37.0680   66.0280   34.3420 C.ar  157  PHE157     -0.0042
     67  CD2       35.1810   64.7390   35.0200 C.ar  157  PHE157     -0.0042
     68  CE1       37.1390   66.5940   35.6020 C.ar  157  PHE157     -0.0003
     69  CE2       35.2450   65.3010   36.2850 C.ar  157  PHE157     -0.0003
     70  CZ        36.2290   66.2270   36.5760 C.ar  157  PHE157     -0.0000
     71  N         46.5440   66.3130   32.0410 N.3   182  ARG182     -0.1245
     72  CA        45.8580   67.6050   32.0860 C.3   182  ARG182      0.1563
     73  C         44.7110   67.6310   31.0970 C.2   182  ARG182      0.2260
     74  O         43.6110   68.0970   31.4100 O.2   182  ARG182     -0.2867
     75  CB        46.8360   68.7590   31.8010 C.3   182  ARG182      0.0307
     76  CG        46.2530   70.1630   32.0230 C.3   182  ARG182      0.0489
     77  CD        45.2190   70.1530   33.1290 C.3   182  ARG182      0.2205
     78  NE        44.8930   71.4900   33.6080 N.pl3 182  ARG182     -0.0865
     79  CZ        43.8910   71.7540   34.4410 C.cat 182  ARG182      0.5346
     80  NH1       43.1080   70.7800   34.8780 N.pl3 182  ARG182      0.1354
     81  NH2       43.6860   72.9900   34.8600 N.pl3 182  ARG182      0.1354
     82  N         41.6060   65.4190   32.1600 N.3   185  ASN185     -0.1225
     83  CA        40.6190   65.9900   33.0790 C.3   185  ASN185      0.1785
     84  C         40.4050   67.5020   32.9930 C.2   185  ASN185      0.2598
     85  O         39.9250   68.1310   33.9510 O.2   185  ASN185     -0.2718
     86  CB        40.9460   65.6080   34.5230 C.3   185  ASN185      0.1169
     87  CG        42.3690   65.9350   34.9040 C.2   185  ASN185      0.2627
     88  OD1       42.8980   67.0010   34.5690 O.2   185  ASN185     -0.2716
     89  ND2       43.0000   65.0180   35.6260 N.am  185  ASN185     -0.0877
     90  N         40.7490   68.0750   31.8420 N.am  186  GLY186     -0.1942
     91  CA        40.5620   69.4970   31.6390 C.3   186  GLY186      0.2014
     92  C         39.1740   69.8260   31.0930 C.2   186  GLY186      0.2638
     93  O         38.7460   70.9790   31.1330 O.2   186  GLY186     -0.2714
     94  N         38.4610   68.8150   30.5930 N.am  187  LEU187     -0.1977
     95  CA        37.1290   69.0240   30.0290 C.3   187  LEU187      0.1596
     96  C         37.2000   70.0590   28.9120 C.2   187  LEU187      0.2287
     97  O         36.2170   70.7310   28.6020 O.2   187  LEU187     -0.2864
     98  CB        36.1580   69.4890   31.1180 C.3   187  LEU187      0.0297
     99  CG        35.5880   68.3590   31.9750 C.3   187  LEU187      0.0022
    100  CD1       34.9040   68.9170   33.2110 C.3   187  LEU187      0.0001
    101  CD2       34.6030   67.5460   31.1420 C.3   187  LEU187      0.0001
    102  N         34.1250   72.2150   27.2670 N.3   191  VAL191     -0.1245
    103  CA        34.0220   73.6600   27.3850 C.3   191  VAL191      0.1561
    104  C         33.9390   74.2760   25.9950 C.2   191  VAL191      0.2260
    105  O         32.9560   74.9150   25.6390 O.2   191  VAL191     -0.2867
    106  CB        35.2620   74.2470   28.1190 C.3   191  VAL191      0.0252
    107  CG1       35.2830   75.7600   27.9910 C.3   191  VAL191      0.0019
    108  CG2       35.2320   73.8500   29.5860 C.3   191  VAL191      0.0019
    109  N         42.0640   77.3590   28.0520 N.3   221  MET221     -0.1230
    110  CA        41.2220   77.1840   29.2110 C.3   221  MET221      0.1702
    111  C         41.9350   76.4850   30.3620 C.2   221  MET221      0.2592
    112  O         41.9000   76.9630   31.4990 O.2   221  MET221     -0.2718
    113  CB        39.9510   76.4350   28.7990 C.3   221  MET221      0.0401
    114  CG        38.8780   76.3370   29.8750 C.3   221  MET221      0.0596
    115  SD        39.1590   74.9380   30.9830 S.3   221  MET221     -0.1393
    116  CE        39.0150   73.6030   29.8070 C.3   221  MET221      0.0692
    117  N         42.6000   75.3710   30.0860 N.am  222  VAL222     -0.1980
    118  CA        43.2700   74.6560   31.1650 C.3   222  VAL222      0.1595
    119  C         44.4960   75.3790   31.6850 C.2   222  VAL222      0.2287
    120  O         44.7260   75.4020   32.8950 O.2   222  VAL222     -0.2864
    121  CB        43.6820   73.2250   30.7540 C.3   222  VAL222      0.0276
    122  CG1       42.4450   72.3910   30.4870 C.3   222  VAL222      0.0022
    123  CG2       44.5770   73.2720   29.5330 C.3   222  VAL222      0.0022
    124  N         43.7540   78.4240   33.8390 N.3   225  ASN225     -0.1240
    125  CA        43.3550   78.0580   35.1860 C.3   225  ASN225      0.1653
    126  C         44.5850   77.6460   35.9790 C.2   225  ASN225      0.2266
    127  O         44.7690   78.0830   37.1110 O.2   225  ASN225     -0.2867
    128  CB        42.3450   76.9090   35.1920 C.3   225  ASN225      0.1155
    129  CG        42.1240   76.3400   36.5960 C.2   225  ASN225      0.2627
    130  OD1       42.9070   75.5220   37.0760 O.2   225  ASN225     -0.2716
    131  ND2       41.0720   76.7940   37.2640 N.am  225  ASN225     -0.0877
    132  N         36.0670   84.3240   32.0710 N.3   295  TYR295     -0.1241
    133  CA        36.8420   83.2750   32.7320 C.3   295  TYR295      0.1605
    134  C         37.8840   83.9110   33.6470 C.2   295  TYR295      0.2264
    135  O         38.0720   83.4750   34.7850 O.2   295  TYR295     -0.2867
    136  CB        37.5290   82.4140   31.6720 C.3   295  TYR295      0.0534
    137  CG        38.1340   81.1180   32.1690 C.ar  295  TYR295     -0.0201
    138  CD1       37.3390   80.1190   32.7400 C.ar  295  TYR295     -0.0009
    139  CD2       39.4960   80.8630   32.0060 C.ar  295  TYR295     -0.0009
    140  CE1       37.8910   78.8980   33.1280 C.ar  295  TYR295      0.0417
    141  CE2       40.0520   79.6480   32.3890 C.ar  295  TYR295      0.0417
    142  CZ        39.2500   78.6730   32.9440 C.ar  295  TYR295      0.1957
    143  OH        39.8140   77.4680   33.2850 O.3   295  TYR295     -0.2866
    144  N         36.1640   85.7370   36.5710 N.3   298  TRP298     -0.1241
    145  CA        35.7690   84.7790   37.5920 C.3   298  TRP298      0.1605
    146  C         36.9050   84.3320   38.5070 C.2   298  TRP298      0.2264
    147  O         36.7250   84.2530   39.7170 O.2   298  TRP298     -0.2867
    148  CB        35.1200   83.5640   36.9360 C.3   298  TRP298      0.0550
    149  CG        34.8200   82.4720   37.8920 C.ar  298  TRP298      0.0003
    150  CD1       34.0560   82.5490   39.0230 C.ar  298  TRP298      0.0946
    151  CD2       35.2840   81.1220   37.8080 C.ar  298  TRP298      0.0152
    152  NE1       34.0180   81.3270   39.6530 N.ar  298  TRP298     -0.2442
    153  CE2       34.7620   80.4320   38.9280 C.ar  298  TRP298      0.0810
    154  CE3       36.0910   80.4240   36.8910 C.ar  298  TRP298      0.0012
    155  CZ2       35.0230   79.0740   39.1570 C.ar  298  TRP298      0.0191
    156  CZ3       36.3500   79.0710   37.1170 C.ar  298  TRP298      0.0001
    157  CH2       35.8150   78.4110   38.2440 C.ar  298  TRP298      0.0015
    158  N         37.7210   81.3830   46.1560 N.3   304  ARG304     -0.1231
    159  CA        38.4380   80.1280   45.9810 C.3   304  ARG304      0.1694
    160  C         39.9330   80.3000   45.7060 C.2   304  ARG304      0.2592
    161  O         40.7720   79.7810   46.4350 O.2   304  ARG304     -0.2718
    162  CB        37.8020   79.3620   44.8290 C.3   304  ARG304      0.0321
    163  CG        38.2820   77.9460   44.6590 C.3   304  ARG304      0.0489
    164  CD        37.8920   77.4370   43.2810 C.3   304  ARG304      0.2205
    165  NE        37.9470   75.9830   43.1900 N.pl3 304  ARG304     -0.0865
    166  CZ        37.0920   75.1720   43.8030 C.cat 304  ARG304      0.5346
    167  NH1       36.1150   75.6780   44.5510 N.pl3 304  ARG304      0.1354
    168  NH2       37.2110   73.8570   43.6650 N.pl3 304  ARG304      0.1354
    169  N         40.2630   81.0370   44.6550 N.am  305  TYR305     -0.1976
    170  CA        41.6550   81.2520   44.2700 C.3   305  TYR305      0.1639
    171  C         42.4090   82.2710   45.1170 C.2   305  TYR305      0.2290
    172  O         43.5470   82.6380   44.7970 O.2   305  TYR305     -0.2864
    173  CB        41.6910   81.6500   42.7970 C.3   305  TYR305      0.0560
    174  CG        40.9710   80.6350   41.9550 C.ar  305  TYR305     -0.0198
    175  CD1       41.5940   79.4410   41.5930 C.ar  305  TYR305     -0.0009
    176  CD2       39.6280   80.8100   41.6190 C.ar  305  TYR305     -0.0009
    177  CE1       40.8960   78.4430   40.9260 C.ar  305  TYR305      0.0417
    178  CE2       38.9220   79.8180   40.9540 C.ar  305  TYR305      0.0417
    179  CZ        39.5600   78.6370   40.6140 C.ar  305  TYR305      0.1957
    180  OH        38.8510   77.6420   39.9890 O.3   305  TYR305     -0.2866
@<TRIPOS>BOND
     1   105   104    2
     2   104   103    1
     3   102   103    1
     4   103   106    1
     5   107   106    1
     6   109   110    1
     7   106   108    1
     8    97    96    2
     9   113   110    1
    10   113   114    1
    11    96    95    1
    12   110   111    1
    13    35    34    1
    14   123   121    1
    15   116   115    1
    16   114   115    1
    17    95    94    1
    18    95    98    1
    19   117   111   am
    20   117   118    1
    21   111   112    2
    22   122   121    1
    23    94    92   am
    24    34    33   ar
    25    34    32   ar
    26   121   118    1
    27    92    93    2
    28    92    91    1
    29    73    74    2
    30    73    72    1
    31    98    99    1
    32    60    61    1
    33   101    99    1
    34    33    31   ar
    35   118   119    1
    36    32    30   ar
    37    91    90    1
    38   136   137    1
    39   136   133    1
    40   119   120    2
    41    75    76    1
    42    75    72    1
    43    90    84   am
    44    99   100    1
    45   139   137   ar
    46   139   141   ar
    47    76    77    1
    48    71    72    1
    49   132   133    1
    50    82    83    1
    51   137   138   ar
    52   141   142   ar
    53    61    64    1
    54    61    62    1
    55    31    29   ar
    56    64    65    1
    57   133   134    1
    58   138   140   ar
    59    30    29   ar
    60   142   140   ar
    61   142   143    1
    62    84    83    1
    63    84    85    2
    64    83    86    1
    65    77    78    1
    66    29    28    1
    67    62    63    2
    68    78    79    2
    69   134   135    2
    70   124   125    1
    71    19    18    2
    72    65    66   ar
    73    65    67   ar
    74    66    68   ar
    75    79    81    1
    76    79    80    1
    77    86    87    1
    78    88    87    2
    79    42    40    1
    80    23    22    1
    81    24    25    1
    82    28    25    1
    83    87    89   am
    84    18    17    1
    85    67    69   ar
    86    21    22    1
    87    21    20    1
    88   125   128    1
    89   125   126    1
    90   128   129    1
    91    25    26    1
    92    68    70   ar
    93    41    40    1
    94    40    37    1
    95   126   127    2
    96    17    20    1
    97    17    16    1
    98    69    70   ar
    99   144   145    1
   100   129   130    2
   101   129   131   am
   102    26    27    2
   103   154   156   ar
   104   154   151   ar
   105   148   145    1
   106   148   149    1
   107    37    36    1
   108    37    38    1
   109   156   157   ar
   110    11    10    2
   111   145   146    1
   112    14    12    1
   113   151   149   ar
   114   151   153   ar
   115   149   150   ar
   116   157   155   ar
   117    38    39    2
   118    38    43   am
   119    13    12    1
   120    13    15    1
   121    10     9    1
   122   146   147    2
   123    43    44    1
   124    12     9    1
   125    59    57   ar
   126   153   155   ar
   127   153   152   ar
   128     9     8    1
   129   150   152   ar
   130    44    47    1
   131    44    45    1
   132     4     3    2
   133    57    56    1
   134    57    58   ar
   135   180   179    1
   136    47    48    1
   137    56    55    1
   138     8     3   am
   139   179   177   ar
   140   179   178   ar
   141     3     2    1
   142   177   175   ar
   143    49    48    1
   144   178   176   ar
   145    45    46    2
   146    48    50    1
   147   175   174   ar
   148    51    52    1
   149   176   174   ar
   150     7     5    1
   151    55    52    1
   152   174   173    1
   153    52    53    1
   154     2     5    1
   155     2     1    1
   156     5     6    1
   157   173   170    1
   158   165   164    1
   159   165   166    2
   160   164   163    1
   161    53    54    2
   162   168   166    1
   163   166   167    1
   164   170   169    1
   165   170   171    1
   166   169   160   am
   167   163   162    1
   168   172   171    2
   169   162   159    1
   170   160   159    1
   171   160   161    2
   172   159   158    1
