@<TRIPOS>MOLECULE
tmp/1yz3B00.pdb
 140 130 0 0 0
SMALL
GASTEIGER

@<TRIPOS>ATOM
      1  N         11.5590   10.4320   22.0500 N.3    22  TYR22      -0.1241
      2  CA        11.1960   11.8190   21.7920 C.3    22  TYR22       0.1605
      3  C         10.9490   12.5670   23.0980 C.2    22  TYR22       0.2264
      4  O         11.5040   13.6440   23.3150 O.2    22  TYR22      -0.2867
      5  CB         9.9430   11.9080   20.9300 C.3    22  TYR22       0.0534
      6  CG         9.5810   13.3330   20.5900 C.ar   22  TYR22      -0.0201
      7  CD1       10.3670   14.0820   19.7100 C.ar   22  TYR22      -0.0009
      8  CD2        8.4560   13.9390   21.1450 C.ar   22  TYR22      -0.0009
      9  CE1       10.0370   15.3990   19.3890 C.ar   22  TYR22       0.0417
     10  CE2        8.1150   15.2590   20.8290 C.ar   22  TYR22       0.0417
     11  CZ         8.9070   15.9800   19.9510 C.ar   22  TYR22       0.1957
     12  OH         8.5580   17.2700   19.6250 O.3    22  TYR22      -0.2866
     13  N         13.4320   15.7070   24.6940 N.3    26  ASN26      -0.1225
     14  CA        12.9120   17.0690   24.8120 C.3    26  ASN26       0.1785
     15  C         12.1210   17.4270   26.0600 C.2    26  ASN26       0.2597
     16  O         12.0230   18.6070   26.4050 O.2    26  ASN26      -0.2718
     17  CB        12.0430   17.3770   23.5930 C.3    26  ASN26       0.1169
     18  CG        12.7800   17.1630   22.2890 C.2    26  ASN26       0.2627
     19  OD1       13.6160   17.9840   21.8940 O.2    26  ASN26      -0.2716
     20  ND2       12.4850   16.0540   21.6130 N.am   26  ASN26      -0.0877
     21  N         11.5540   16.4360   26.7430 N.am   27  TYR27      -0.1976
     22  CA        10.7490   16.7500   27.9150 C.3    27  TYR27       0.1639
     23  C         11.1680   16.1530   29.2500 C.2    27  TYR27       0.2290
     24  O         10.3770   16.0840   30.1930 O.2    27  TYR27      -0.2864
     25  CB         9.2860   16.4540   27.6040 C.3    27  TYR27       0.0560
     26  CG         8.8260   17.2410   26.3970 C.ar   27  TYR27      -0.0198
     27  CD1        8.7430   16.6430   25.1410 C.ar   27  TYR27      -0.0009
     28  CD2        8.5440   18.6060   26.4940 C.ar   27  TYR27      -0.0009
     29  CE1        8.3910   17.3820   24.0050 C.ar   27  TYR27       0.0417
     30  CE2        8.1920   19.3630   25.3560 C.ar   27  TYR27       0.0417
     31  CZ         8.1180   18.7410   24.1170 C.ar   27  TYR27       0.1957
     32  OH         7.7750   19.4640   22.9900 O.3    27  TYR27      -0.2866
     33  N         16.3920   19.5990   29.1320 N.3    31  ARG31      -0.1245
     34  CA        15.3430   20.3620   28.4610 C.3    31  ARG31       0.1563
     35  C         14.0080   20.3750   29.2030 C.2    31  ARG31       0.2260
     36  O         13.2840   21.3700   29.1760 O.2    31  ARG31      -0.2867
     37  CB        15.1530   19.8550   27.0310 C.3    31  ARG31       0.0307
     38  CG        16.3210   20.2140   26.1360 C.3    31  ARG31       0.0489
     39  CD        15.9640   20.1310   24.6760 C.3    31  ARG31       0.2205
     40  NE        17.0370   20.6730   23.8450 N.pl3  31  ARG31      -0.0865
     41  CZ        17.0190   20.6990   22.5170 C.cat  31  ARG31       0.5346
     42  NH1       15.9770   20.2170   21.8540 N.pl3  31  ARG31       0.1354
     43  NH2       18.0560   21.1940   21.8540 N.pl3  31  ARG31       0.1354
     44  N         14.0270   26.5090   28.1250 N.3    40  VAL40      -0.1245
     45  CA        13.0180   26.5530   27.0820 C.3    40  VAL40       0.1561
     46  C         11.6150   26.1620   27.5740 C.2    40  VAL40       0.2260
     47  O         10.6090   26.6760   27.0700 O.2    40  VAL40      -0.2867
     48  CB        13.4260   25.6610   25.8860 C.3    40  VAL40       0.0252
     49  CG1       13.2780   24.1870   26.2420 C.3    40  VAL40       0.0019
     50  CG2       12.6030   26.0330   24.6650 C.3    40  VAL40       0.0019
     51  N          8.3940   28.6300   27.0040 N.3    44  LYS44      -0.1245
     52  CA         7.2290   28.2010   26.2340 C.3    44  LYS44       0.1561
     53  C          5.9560   28.3580   27.0720 C.2    44  LYS44       0.2260
     54  O          4.9970   28.9820   26.6270 O.2    44  LYS44      -0.2867
     55  CB         7.3580   26.7400   25.7900 C.3    44  LYS44       0.0271
     56  CG         8.2070   26.5200   24.5550 C.3    44  LYS44       0.0035
     57  CD         8.1880   25.0500   24.1400 C.3    44  LYS44       0.0206
     58  CE         8.7350   24.1500   25.2460 C.3    44  LYS44       0.1093
     59  NZ         8.8380   22.7210   24.8270 N.3    44  LYS44      -0.1314
     60  N          5.8300   22.6810   17.1700 N.3   169  PHE169     -0.1241
     61  CA         6.8380   21.8500   16.5140 C.3   169  PHE169      0.1605
     62  C          6.3060   20.8650   15.4910 C.2   169  PHE169      0.2264
     63  O          6.7950   19.7410   15.3790 O.2   169  PHE169     -0.2867
     64  CB         7.6550   21.0980   17.5680 C.3   169  PHE169      0.0534
     65  CG         8.2990   22.0010   18.5810 C.ar  169  PHE169     -0.0203
     66  CD1        7.7750   22.1100   19.8640 C.ar  169  PHE169     -0.0042
     67  CD2        9.3850   22.7950   18.2280 C.ar  169  PHE169     -0.0042
     68  CE1        8.3210   23.0070   20.7890 C.ar  169  PHE169     -0.0003
     69  CE2        9.9410   23.6950   19.1360 C.ar  169  PHE169     -0.0003
     70  CZ         9.4070   23.8050   20.4250 C.ar  169  PHE169     -0.0000
     71  N          7.0690   22.9410   10.7090 N.3   172  GLU172     -0.1231
     72  CA         8.4320   22.9460   10.1990 C.3   172  GLU172      0.1699
     73  C          9.1240   21.5800   10.2890 C.2   172  GLU172      0.2592
     74  O         10.1170   21.3360    9.5970 O.2   172  GLU172     -0.2718
     75  CB         9.2840   24.0040   10.9180 C.3   172  GLU172      0.0402
     76  CG         9.8180   23.5980   12.2930 C.3   172  GLU172      0.1161
     77  CD         8.7630   23.6190   13.3960 C.2   172  GLU172      0.3649
     78  OE1        7.5860   23.9590   13.1180 O.co2 172  GLU172     -0.2457
     79  OE2        9.1210   23.2950   14.5510 O.co2 172  GLU172     -0.2457
     80  N          8.6100   20.6870   11.1270 N.am  173  ALA173     -0.1980
     81  CA         9.2340   19.3740   11.2710 C.3   173  ALA173      0.1597
     82  C          8.7150   18.3460   10.2750 C.2   173  ALA173      0.2287
     83  O          9.2230   17.2230   10.2180 O.2   173  ALA173     -0.2864
     84  CB         9.0550   18.8510   12.7120 C.3   173  ALA173      0.0319
     85  N         10.5830   25.3710   15.9100 N.3   203  ALA203     -0.1245
     86  CA        12.0380   25.4250   15.9210 C.3   203  ALA203      0.1562
     87  C         12.5620   26.3520   14.8330 C.2   203  ALA203      0.2260
     88  O         12.0370   26.3800   13.7220 O.2   203  ALA203     -0.2867
     89  CB        12.6070   24.0300   15.7180 C.3   203  ALA203      0.0290
     90  N         16.5150   24.7980   12.2190 N.3   206  GLU206     -0.1245
     91  CA        16.7580   23.4030   12.5620 C.3   206  GLU206      0.1567
     92  C         16.7180   22.5370   11.3130 C.2   206  GLU206      0.2260
     93  O         15.8530   22.7250   10.4510 O.2   206  GLU206     -0.2867
     94  CB        15.7130   22.9140   13.5770 C.3   206  GLU206      0.0388
     95  CG        15.7600   21.4100   13.8530 C.3   206  GLU206      0.1160
     96  CD        14.6930   20.9450   14.8360 C.2   206  GLU206      0.3649
     97  OE1       14.9530   20.9820   16.0580 O.co2 206  GLU206     -0.2457
     98  OE2       13.5890   20.5510   14.3860 O.co2 206  GLU206     -0.2457
     99  N         16.5940   16.4390   14.1290 N.3   209  TYR209     -0.1241
    100  CA        16.3450   16.2000   15.5420 C.3   209  TYR209      0.1605
    101  C         16.1200   14.6980   15.6470 C.2   209  TYR209      0.2264
    102  O         15.7660   14.0500   14.6590 O.2   209  TYR209     -0.2867
    103  CB        15.1350   17.0080   16.0470 C.3   209  TYR209      0.0534
    104  CG        13.7720   16.4910   15.6480 C.ar  209  TYR209     -0.0201
    105  CD1       13.0780   15.6040   16.4650 C.ar  209  TYR209     -0.0009
    106  CD2       13.1570   16.9230   14.4730 C.ar  209  TYR209     -0.0009
    107  CE1       11.7990   15.1610   16.1260 C.ar  209  TYR209      0.0417
    108  CE2       11.8870   16.4860   14.1240 C.ar  209  TYR209      0.0417
    109  CZ        11.2140   15.6060   14.9550 C.ar  209  TYR209      0.1957
    110  OH         9.9600   15.1610   14.6060 O.3   209  TYR209     -0.2866
    111  N         18.3210   29.2910   21.8190 N.3   245  MET245     -0.1245
    112  CA        18.7410   28.0950   22.5430 C.3   245  MET245      0.1570
    113  C         20.1250   28.2630   23.1630 C.2   245  MET245      0.2261
    114  O         21.1080   28.4740   22.4600 O.2   245  MET245     -0.2867
    115  CB        18.7400   26.8840   21.6100 C.3   245  MET245      0.0387
    116  CG        18.7870   25.5560   22.3450 C.3   245  MET245      0.0595
    117  SD        17.3780   25.3760   23.4590 S.3   245  MET245     -0.1393
    118  CE        16.1890   24.7090   22.3700 C.3   245  MET245      0.0692
    119  N         19.3720   17.5150   18.6390 N.3   254  ASP254     -0.1239
    120  CA        19.0100   18.2760   17.4430 C.3   254  ASP254      0.1674
    121  C         20.0190   19.4090   17.2350 C.2   254  ASP254      0.2266
    122  O         20.9850   19.5270   17.9870 O.2   254  ASP254     -0.2867
    123  CB        17.5960   18.8480   17.6080 C.3   254  ASP254      0.1410
    124  CG        17.4620   19.7510   18.8340 C.2   254  ASP254      0.3668
    125  OD1       16.3820   19.7500   19.4640 O.co2 254  ASP254     -0.2456
    126  OD2       18.4270   20.4730   19.1670 O.co2 254  ASP254     -0.2456
    127  N         18.8240   22.7020   16.7070 N.3   256  VAL256     -0.1245
    128  CA        17.9840   23.8870   16.7690 C.3   256  VAL256      0.1561
    129  C         18.7730   25.0510   17.3610 C.2   256  VAL256      0.2260
    130  O         19.5400   24.8670   18.3070 O.2   256  VAL256     -0.2867
    131  CB        16.7090   23.6200   17.6160 C.3   256  VAL256      0.0252
    132  CG1       17.0910   23.2580   19.0460 C.3   256  VAL256      0.0019
    133  CG2       15.8160   24.8350   17.5990 C.3   256  VAL256      0.0019
    134  N         13.7860   28.9910   19.2440 N.3   259  VAL259     -0.1245
    135  CA        12.3880   28.5730   19.1950 C.3   259  VAL259      0.1561
    136  C         11.5200   29.8060   19.0240 C.2   259  VAL259      0.2260
    137  O         11.7630   30.8260   19.6630 O.2   259  VAL259     -0.2867
    138  CB        11.9650   27.8790   20.5170 C.3   259  VAL259      0.0252
    139  CG1       10.4770   27.5240   20.4720 C.3   259  VAL259      0.0019
    140  CG2       12.8270   26.6450   20.7570 C.3   259  VAL259      0.0019
@<TRIPOS>BOND
     1    74    73    2
     2    72    73    1
     3    72    71    1
     4    72    75    1
     5    83    82    2
     6    82    81    1
     7    73    80   am
     8    93    92    2
     9    75    76    1
    10    80    81    1
    11    81    84    1
    12    92    91    1
    13    90    91    1
    14    76    77    1
    15    91    94    1
    16    78    77   ar
    17    77    79   ar
    18    94    95    1
    19    88    87    2
    20    95    96    1
    21   108   106   ar
    22   108   109   ar
    23    99   100    1
    24    98    96   ar
    25   106   104   ar
    26   110   109    1
    27   102   101    2
    28    87    86    1
    29    96    97   ar
    30   109   107   ar
    31    63    62    2
    32    62    61    1
    33   100   101    1
    34   100   103    1
    35   104   103    1
    36   104   105   ar
    37    89    86    1
    38    85    86    1
    39   107   105   ar
    40    61    60    1
    41    61    64    1
    42   127   128    1
    43   128   129    1
    44   128   131    1
    45   121   120    1
    46   121   122    2
    47   129   130    2
    48   120   123    1
    49   120   119    1
    50    64    65    1
    51   133   131    1
    52   123   124    1
    53   131   132    1
    54    67    65   ar
    55    67    69   ar
    56    65    66   ar
    57   124   126   ar
    58   124   125   ar
    59   136   135    1
    60   136   137    2
    61    69    70   ar
    62   135   134    1
    63   135   138    1
    64     9     7   ar
    65     9    11   ar
    66    12    11    1
    67     7     6   ar
    68    66    68   ar
    69    11    10   ar
    70    70    68   ar
    71   139   138    1
    72   138   140    1
    73     6     5    1
    74     6     8   ar
    75    10     8   ar
    76     5     2    1
    77   115   116    1
    78   115   112    1
    79    20    18   am
    80     2     1    1
    81     2     3    1
    82   111   112    1
    83    42    41    1
    84    43    41    1
    85    19    18    2
    86    18    17    1
    87   116   117    1
    88   118   117    1
    89   114   113    2
    90    41    40    2
    91   112   113    1
    92    32    31    1
    93     3     4    2
    94    17    14    1
    95    40    39    1
    96    29    31   ar
    97    29    27   ar
    98    31    30   ar
    99    57    56    1
   100    57    58    1
   101    56    55    1
   102    50    48    1
   103    39    38    1
   104    13    14    1
   105    14    15    1
   106    59    58    1
   107    27    26   ar
   108    30    28   ar
   109    55    52    1
   110    48    49    1
   111    48    45    1
   112    15    16    2
   113    15    21   am
   114    38    37    1
   115    52    51    1
   116    52    53    1
   117    26    28   ar
   118    26    25    1
   119    54    53    2
   120    21    22    1
   121    37    34    1
   122    47    46    2
   123    45    46    1
   124    45    44    1
   125    25    22    1
   126    22    23    1
   127    34    33    1
   128    34    35    1
   129    36    35    2
   130    23    24    2
