@<TRIPOS>MOLECULE
tmp/1yzgA00.pdb
 108 103 0 0 0
SMALL
GASTEIGER

@<TRIPOS>ATOM
      1  N          5.0890    1.1540   -0.6990 N.3    20  ASP20      -0.1225
      2  CA         5.0990   -0.1310   -1.3820 C.3    20  ASP20       0.1805
      3  C          6.4910   -0.4340   -1.8940 C.2    20  ASP20       0.2598
      4  O          7.2170    0.4810   -2.3260 O.2    20  ASP20      -0.2718
      5  CB         4.0430   -0.1810   -2.5130 C.3    20  ASP20       0.1424
      6  CG         4.4250    0.6450   -3.7550 C.2    20  ASP20       0.3668
      7  OD1        4.3920    1.8970   -3.6990 O.co2  20  ASP20      -0.2456
      8  OD2        4.7070    0.0290   -4.8160 O.co2  20  ASP20      -0.2456
      9  N          6.8640   -1.7100   -1.8440 N.am   21  ASN21      -0.1960
     10  CA         8.1790   -2.1670   -2.2690 C.3    21  ASN21       0.1819
     11  C          9.3700   -1.7750   -1.3900 C.2    21  ASN21       0.2621
     12  O         10.5440   -1.9150   -1.8150 O.2    21  ASN21      -0.2715
     13  CB         8.4580   -1.7980   -3.7320 C.3    21  ASN21       0.1195
     14  CG         8.6710   -3.0140   -4.5910 C.2    21  ASN21       0.2630
     15  OD1        9.7730   -3.2270   -5.1210 O.2    21  ASN21      -0.2716
     16  ND2        7.6390   -3.8640   -4.6930 N.am   21  ASN21      -0.0877
     17  N          9.0860   -1.3000   -0.1710 N.am   22  ALA22      -0.1963
     18  CA        10.1680   -0.8690    0.7290 C.3    22  ALA22       0.1728
     19  C         10.8990   -2.0750    1.3010 C.2    22  ALA22       0.2617
     20  O         12.1010   -2.0350    1.5190 O.2    22  ALA22      -0.2715
     21  CB         9.6320    0.0240    1.8550 C.3    22  ALA22       0.0334
     22  N         10.1540   -3.1430    1.5390 N.am   23  GLY23      -0.1940
     23  CA        10.7140   -4.3880    2.0570 C.3    23  GLY23       0.2014
     24  C         10.0390   -4.8040    3.3450 C.2    23  GLY23       0.2639
     25  O         10.5290   -5.6850    4.0360 O.2    23  GLY23      -0.2714
     26  N          8.8890   -4.1980    3.6470 N.am   24  LYS24      -0.1963
     27  CA         8.1500   -4.4940    4.8760 C.3    24  LYS24       0.1728
     28  C          7.8380   -5.9750    5.1040 C.2    24  LYS24       0.2617
     29  O          8.1040   -6.5150    6.1970 O.2    24  LYS24      -0.2715
     30  CB         6.8590   -3.6640    4.9620 C.3    24  LYS24       0.0311
     31  CG         7.1030   -2.1590    5.0400 C.3    24  LYS24       0.0038
     32  CD         5.7920   -1.3600    5.0870 C.3    24  LYS24       0.0206
     33  CE         4.8630   -1.7150    3.9020 C.3    24  LYS24       0.1093
     34  NZ         5.3790   -1.3610    2.5370 N.3    24  LYS24      -0.1314
     35  N          7.2710   -6.6100    4.0850 N.am   25  THR25      -0.1937
     36  CA         6.8510   -8.0150    4.1650 C.3    25  THR25       0.2028
     37  C          8.0830   -8.9200    4.3130 C.2    25  THR25       0.2642
     38  O          8.0590   -9.8800    5.0850 O.2    25  THR25      -0.2714
     39  CB         6.0850   -8.4360    2.9050 C.3    25  THR25       0.1808
     40  OG1        4.9850   -7.5530    2.7100 O.3    25  THR25      -0.2208
     41  CG2        5.5480   -9.8660    3.0230 C.3    25  THR25       0.0379
     42  N          9.1530   -8.5890    3.5840 N.am   26  THR26      -0.1950
     43  CA        10.3860   -9.3790    3.6380 C.3    26  THR26       0.1897
     44  C         11.0030   -9.3060    5.0240 C.2    26  THR26       0.2313
     45  O         11.4170  -10.3180    5.5660 O.2    26  THR26      -0.2863
     46  CB        11.4130   -8.9290    2.5740 C.3    26  THR26       0.1794
     47  OG1       10.7330   -8.7470    1.3260 O.3    26  THR26      -0.2208
     48  CG2       12.5300   -9.9890    2.4040 C.3    26  THR26       0.0378
     49  N          1.1360    0.1370    3.7140 N.3    61  ASP61      -0.1239
     50  CA         1.8230    1.0180    2.7850 C.3    61  ASP61       0.1674
     51  C          1.3960    2.4710    2.9990 C.2    61  ASP61       0.2266
     52  O          0.2080    2.7730    3.0990 O.2    61  ASP61      -0.2867
     53  CB         1.5100    0.6410    1.3360 C.3    61  ASP61       0.1410
     54  CG         2.0630   -0.7050    0.9240 C.2    61  ASP61       0.3668
     55  OD1        3.0310   -1.2570    1.5210 O.co2  61  ASP61      -0.2456
     56  OD2        1.5120   -1.2290   -0.0510 O.co2  61  ASP61      -0.2456
     57  N         16.7260    0.0710    4.2840 N.3   120  ASN120     -0.1225
     58  CA        16.6990   -1.2480    3.6940 C.3   120  ASN120      0.1785
     59  C         17.3270   -1.1740    2.3140 C.2   120  ASN120      0.2597
     60  O         17.5620   -0.0870    1.7950 O.2   120  ASN120     -0.2718
     61  CB        15.2460   -1.7630    3.6410 C.3   120  ASN120      0.1169
     62  CG        15.1440   -3.2540    3.2500 C.2   120  ASN120      0.2627
     63  OD1       15.9320   -4.0960    3.6980 O.2   120  ASN120     -0.2716
     64  ND2       14.1630   -3.5710    2.4180 N.am  120  ASN120     -0.0877
     65  N         17.6230   -2.3430    1.7580 N.am  121  LYS121     -0.1980
     66  CA        18.2790   -2.5230    0.4640 C.3   121  LYS121      0.1596
     67  C         19.6760   -1.9050    0.4240 C.2   121  LYS121      0.2287
     68  O         20.1270   -1.4280   -0.6060 O.2   121  LYS121     -0.2864
     69  CB        17.4150   -2.0670   -0.7130 C.3   121  LYS121      0.0298
     70  CG        15.9050   -2.3490   -0.5420 C.3   121  LYS121      0.0038
     71  CD        15.2110   -2.4030   -1.8840 C.3   121  LYS121      0.0206
     72  CE        13.7630   -2.8380   -1.7310 C.3   121  LYS121      0.1093
     73  NZ        12.9660   -2.4960   -2.9700 N.3   121  LYS121     -0.1314
     74  N         22.2790   -3.4450    0.4380 N.3   123  ASP123     -0.1225
     75  CA        23.0740   -4.3180   -0.4260 C.3   123  ASP123      0.1805
     76  C         23.2130   -3.7580   -1.8420 C.2   123  ASP123      0.2597
     77  O         24.1400   -4.1250   -2.5730 O.2   123  ASP123     -0.2718
     78  CB        22.4260   -5.7070   -0.5140 C.3   123  ASP123      0.1424
     79  CG        21.0450   -5.6630   -1.1240 C.2   123  ASP123      0.3668
     80  OD1       20.1440   -5.0400   -0.5330 O.co2 123  ASP123     -0.2456
     81  OD2       20.8530   -6.2280   -2.2030 O.co2 123  ASP123     -0.2456
     82  N         22.2780   -2.8950   -2.2370 N.am  124  MET124     -0.1979
     83  CA        22.2530   -2.3690   -3.5990 C.3   124  MET124      0.1605
     84  C         23.3450   -1.3110   -3.8450 C.2   124  MET124      0.2287
     85  O         23.5050   -0.3710   -3.0540 O.2   124  MET124     -0.2864
     86  CB        20.8790   -1.8050   -3.9310 C.3   124  MET124      0.0413
     87  CG        19.7630   -2.8060   -3.7800 C.3   124  MET124      0.0598
     88  SD        18.2930   -2.2370   -4.6220 S.3   124  MET124     -0.1393
     89  CE        18.7720   -2.5520   -6.3240 C.3   124  MET124      0.0692
     90  N         19.5390   -5.3110    5.0240 N.3   153  CYS153     -0.1221
     91  CA        19.1890   -5.9950    3.8040 C.3   153  CYS153      0.1808
     92  C         18.1760   -7.0480    4.1980 C.2   153  CYS153      0.2601
     93  O         18.5170   -8.0570    4.8240 O.2   153  CYS153     -0.2717
     94  CB        20.4040   -6.7100    3.1970 C.3   153  CYS153      0.0970
     95  SG        19.9500   -7.6900    1.7270 S.3   153  CYS153     -0.0800
     96  N         16.9260   -6.8130    3.8160 N.am  154  ALA154     -0.1965
     97  CA        15.8400   -7.6600    4.2390 C.3   154  ALA154      0.1728
     98  C         16.0220   -9.0770    3.6990 C.2   154  ALA154      0.2616
     99  O         15.7040  -10.0150    4.4110 O.2   154  ALA154     -0.2715
    100  CB        14.5080   -7.0840    3.8090 C.3   154  ALA154      0.0334
    101  N         16.5810   -9.2140    2.4910 N.am  155  LEU155     -0.1977
    102  CA        16.7890  -10.5300    1.8520 C.3   155  LEU155      0.1596
    103  C         17.6870  -11.4700    2.6690 C.2   155  LEU155      0.2287
    104  O         17.4000  -12.6730    2.8220 O.2   155  LEU155     -0.2864
    105  CB        17.3350  -10.3830    0.4140 C.3   155  LEU155      0.0297
    106  CG        16.6370   -9.5340   -0.6540 C.3   155  LEU155      0.0022
    107  CD1       17.4800   -9.5140   -1.9170 C.3   155  LEU155      0.0001
    108  CD2       15.2420  -10.0580   -0.9700 C.3   155  LEU155      0.0001
@<TRIPOS>BOND
     1    89    88    1
     2    15    14    2
     3     8     6   ar
     4    16    14   am
     5    88    87    1
     6    14    13    1
     7    86    87    1
     8    86    83    1
     9    84    83    1
    10    84    85    2
    11     6     7   ar
    12     6     5    1
    13    13    10    1
    14    83    82    1
    15    73    72    1
    16    77    76    2
    17     5     2    1
    18     4     3    2
    19    10     9    1
    20    10    11    1
    21    82    76   am
    22    81    79   ar
    23   107   106    1
    24     3     9   am
    25     3     2    1
    26    71    72    1
    27    71    70    1
    28    76    75    1
    29    12    11    2
    30    11    17   am
    31     2     1    1
    32    79    80   ar
    33    79    78    1
    34   108   106    1
    35    69    70    1
    36    69    66    1
    37   106   105    1
    38    68    67    2
    39    78    75    1
    40    75    74    1
    41    17    18    1
    42    56    54   ar
    43   105   102    1
    44    67    66    1
    45    66    65    1
    46    18    19    1
    47    18    21    1
    48    54    53    1
    49    54    55   ar
    50    19    20    2
    51    19    22   am
    52    47    46    1
    53    53    50    1
    54    22    23    1
    55    95    94    1
    56    65    59   am
    57    60    59    2
    58   102   101    1
    59   102   103    1
    60    23    24    1
    61    59    58    1
    62    48    46    1
    63    64    62   am
    64   101    98   am
    65    34    33    1
    66    46    43    1
    67   103   104    2
    68    40    39    1
    69    50    51    1
    70    50    49    1
    71    39    41    1
    72    39    36    1
    73    51    52    2
    74    94    91    1
    75    62    61    1
    76    62    63    2
    77    24    26   am
    78    24    25    2
    79    42    43    1
    80    42    37   am
    81    43    44    1
    82    61    58    1
    83    26    27    1
    84    58    57    1
    85    98    97    1
    86    98    99    2
    87    91    92    1
    88    91    90    1
    89   100    97    1
    90    96    92   am
    91    96    97    1
    92    33    32    1
    93    35    36    1
    94    35    28   am
    95    36    37    1
    96    92    93    2
    97    37    38    2
    98    27    30    1
    99    27    28    1
   100    30    31    1
   101    44    45    2
   102    31    32    1
   103    28    29    2
