@<TRIPOS>MOLECULE
tmp/1yziA02.pdb
 78 71 0 0 0
SMALL
GASTEIGER

@<TRIPOS>ATOM
      1  N         47.3100   36.2640   35.3920 N.3     9  ASN9       -0.1240
      2  CA        48.6550   35.7500   35.1310 C.3     9  ASN9        0.1653
      3  C         49.0910   35.9280   33.7050 C.2     9  ASN9        0.2266
      4  O         50.1980   36.4180   33.4590 O.2     9  ASN9       -0.2867
      5  CB        48.7370   34.2850   35.5940 C.3     9  ASN9        0.1155
      6  CG        48.6750   34.1860   37.1300 C.2     9  ASN9        0.2627
      7  OD1       49.0020   35.1560   37.8090 O.2     9  ASN9       -0.2716
      8  ND2       48.2770   33.0410   37.6750 N.am    9  ASN9       -0.0877
      9  N         49.6670   39.5100   32.9620 N.3    12  ALA12      -0.1231
     10  CA        50.8750   39.9640   33.6510 C.3    12  ALA12       0.1694
     11  C         52.1140   39.5140   32.8580 C.2    12  ALA12       0.2591
     12  O         53.0510   40.2980   32.6850 O.2    12  ALA12      -0.2718
     13  CB        50.9140   39.4140   35.1150 C.3    12  ALA12       0.0304
     14  N         52.1160   38.2530   32.3940 N.am   13  ALA13      -0.1980
     15  CA        53.2150   37.7320   31.5800 C.3    13  ALA13       0.1597
     16  C         53.3700   38.5930   30.3110 C.2    13  ALA13       0.2287
     17  O         54.4640   38.9580   29.9430 O.2    13  ALA13      -0.2864
     18  CB        52.9440   36.2670   31.1630 C.3    13  ALA13       0.0319
     19  N         54.8880   41.9520   31.1210 N.3    16  LYS16      -0.1245
     20  CA        56.3320   41.8660   31.3690 C.3    16  LYS16       0.1561
     21  C         57.1040   41.6030   30.0580 C.2    16  LYS16       0.2260
     22  O         58.1320   42.2420   29.7810 O.2    16  LYS16      -0.2867
     23  CB        56.6530   40.7960   32.4260 C.3    16  LYS16       0.0271
     24  CG        58.1590   40.5210   32.5870 C.3    16  LYS16       0.0035
     25  CD        58.9130   41.8530   32.8790 C.3    16  LYS16       0.0206
     26  CE        60.3810   41.6540   33.2270 C.3    16  LYS16       0.1093
     27  NZ        61.2080   42.9010   33.1280 N.3    16  LYS16      -0.1314
     28  N         59.6800   31.5280   27.2380 N.3   109  LEU109     -0.1245
     29  CA        59.4090   32.3510   28.4080 C.3   109  LEU109      0.1561
     30  C         60.2210   31.9140   29.6010 C.2   109  LEU109      0.2260
     31  O         60.7450   32.7350   30.3190 O.2   109  LEU109     -0.2867
     32  CB        57.9530   32.2500   28.8110 C.3   109  LEU109      0.0270
     33  CG        57.0290   33.0560   27.9480 C.3   109  LEU109      0.0019
     34  CD1       55.6130   32.8410   28.4680 C.3   109  LEU109      0.0001
     35  CD2       57.3940   34.5070   28.0450 C.3   109  LEU109      0.0001
     36  N         62.4740   34.5140   31.6030 N.3   113  LEU113     -0.1245
     37  CA        61.8410   34.9810   32.8050 C.3   113  LEU113      0.1561
     38  C         61.7580   33.9050   33.8480 C.2   113  LEU113      0.2260
     39  O         60.6810   33.6210   34.3500 O.2   113  LEU113     -0.2867
     40  CB        60.4310   35.4480   32.4410 C.3   113  LEU113      0.0270
     41  CG        60.4690   36.6090   31.4600 C.3   113  LEU113      0.0019
     42  CD1       59.1000   36.9320   30.9220 C.3   113  LEU113      0.0001
     43  CD2       61.0190   37.8000   32.1820 C.3   113  LEU113      0.0001
     44  N         59.8600   34.8350   37.2080 N.3   116  GLU116     -0.1231
     45  CA        58.4320   34.9750   37.0980 C.3   116  GLU116      0.1699
     46  C         57.6730   33.7840   36.5440 C.2   116  GLU116      0.2592
     47  O         56.4920   33.6930   36.7720 O.2   116  GLU116     -0.2718
     48  CB        58.0430   36.2660   36.3710 C.3   116  GLU116      0.0402
     49  CG        58.9520   36.7440   35.3210 C.3   116  GLU116      0.1161
     50  CD        60.1990   37.3920   35.8700 C.2   116  GLU116      0.3649
     51  OE1       60.1510   38.5670   36.3240 O.co2 116  GLU116     -0.2457
     52  OE2       61.2310   36.7030   35.8220 O.co2 116  GLU116     -0.2457
     53  N         58.3420   32.8470   35.8860 N.am  117  PHE117     -0.1976
     54  CA        57.6850   31.6490   35.3250 C.3   117  PHE117      0.1639
     55  C         57.4810   30.5710   36.4230 C.2   117  PHE117      0.2290
     56  O         58.1370   29.5080   36.4200 O.2   117  PHE117     -0.2864
     57  CB        58.5860   31.1140   34.2050 C.3   117  PHE117      0.0560
     58  CG        57.9730   30.0600   33.3890 C.ar  117  PHE117     -0.0200
     59  CD1       56.8750   30.3440   32.5890 C.ar  117  PHE117     -0.0042
     60  CD2       58.4820   28.7860   33.4070 C.ar  117  PHE117     -0.0042
     61  CE1       56.2680   29.3460   31.8090 C.ar  117  PHE117     -0.0003
     62  CE2       57.9010   27.7850   32.6380 C.ar  117  PHE117     -0.0003
     63  CZ        56.7810   28.0660   31.8370 C.ar  117  PHE117     -0.0000
     64  N         52.0730   30.1990   37.0690 N.3   121  VAL121     -0.1245
     65  CA        52.0600   31.0130   35.8540 C.3   121  VAL121      0.1561
     66  C         52.1550   30.0970   34.6410 C.2   121  VAL121      0.2260
     67  O         51.5050   30.3120   33.6000 O.2   121  VAL121     -0.2867
     68  CB        53.2470   32.0050   35.8500 C.3   121  VAL121      0.0252
     69  CG1       53.5320   32.5650   34.4380 C.3   121  VAL121      0.0019
     70  CG2       52.9510   33.1210   36.8120 C.3   121  VAL121      0.0019
     71  N         49.5800   29.9120   31.6080 N.3   125  LEU125     -0.1245
     72  CA        50.0270   30.1150   30.2430 C.3   125  LEU125      0.1561
     73  C         49.6860   28.8870   29.3990 C.2   125  LEU125      0.2260
     74  O         49.2130   28.9930   28.2480 O.2   125  LEU125     -0.2867
     75  CB        51.5390   30.3440   30.2290 C.3   125  LEU125      0.0270
     76  CG        52.1170   31.7560   30.2790 C.3   125  LEU125      0.0019
     77  CD1       51.2490   32.7030   29.4310 C.3   125  LEU125      0.0001
     78  CD2       52.1430   32.2200   31.6210 C.3   125  LEU125      0.0001
@<TRIPOS>BOND
     1    28    29    1
     2    33    35    1
     3    33    34    1
     4    33    32    1
     5    74    73    2
     6    29    32    1
     7    29    30    1
     8    73    72    1
     9    77    76    1
    10    30    31    2
    11    22    21    2
    12    17    16    2
    13    21    20    1
    14    75    72    1
    15    75    76    1
    16    72    71    1
    17    76    78    1
    18    16    15    1
    19    42    41    1
    20    19    20    1
    21    18    15    1
    22    20    23    1
    23    41    43    1
    24    41    40    1
    25    15    14    1
    26    36    37    1
    27    61    63   ar
    28    61    59   ar
    29    63    62   ar
    30    14    11   am
    31    23    24    1
    32    40    37    1
    33    24    25    1
    34    59    58   ar
    35    62    60   ar
    36    12    11    2
    37    37    38    1
    38    11    10    1
    39    25    26    1
    40     9    10    1
    41    27    26    1
    42    58    60   ar
    43    58    57    1
    44     4     3    2
    45    67    66    2
    46    10    13    1
    47     3     2    1
    48    38    39    2
    49    57    54    1
    50    69    68    1
    51    66    65    1
    52     2     1    1
    53     2     5    1
    54    49    50    1
    55    49    48    1
    56    54    53    1
    57    54    55    1
    58     5     6    1
    59    52    50   ar
    60    68    65    1
    61    68    70    1
    62    65    64    1
    63    50    51   ar
    64    53    46   am
    65    48    45    1
    66    56    55    2
    67    46    47    2
    68    46    45    1
    69    45    44    1
    70     6     8   am
    71     6     7    2
