@<TRIPOS>MOLECULE
tmp/1yznA00.pdb
 173 168 0 0 0
SMALL
GASTEIGER

@<TRIPOS>ATOM
      1  N          5.3050   19.7070   14.7760 N.3    23  SER23      -0.1202
      2  CA         4.2360   20.5990   14.3360 C.3    23  SER23       0.2020
      3  C          4.1340   21.8310   15.2410 C.2    23  SER23       0.2619
      4  O          4.2030   21.7070   16.4650 O.2    23  SER23      -0.2717
      5  CB         2.8970   19.8670   14.3180 C.3    23  SER23       0.2103
      6  OG         1.8790   20.7200   13.8240 O.3    23  SER23      -0.2182
      7  N          3.9850   23.0020   14.6300 N.am   24  GLY24      -0.1942
      8  CA         3.7050   24.2400   15.3590 C.3    24  GLY24       0.2014
      9  C          4.9010   25.0930   15.7440 C.2    24  GLY24       0.2639
     10  O          4.7360   26.1760   16.3000 O.2    24  GLY24      -0.2714
     11  N          6.1030   24.6150   15.4400 N.am   25  VAL25      -0.1963
     12  CA         7.3350   25.2850   15.8720 C.3    25  VAL25       0.1727
     13  C          7.6250   26.5430   15.0520 C.2    25  VAL25       0.2617
     14  O          8.3490   27.4440   15.5000 O.2    25  VAL25      -0.2715
     15  CB         8.5510   24.3040   15.8790 C.3    25  VAL25       0.0290
     16  CG1        8.2810   23.1230   16.8030 C.3    25  VAL25       0.0023
     17  CG2        8.8800   23.7910   14.4720 C.3    25  VAL25       0.0023
     18  N          7.0510   26.6000   13.8510 N.am   26  GLY26      -0.1940
     19  CA         7.2150   27.7440   12.9680 C.3    26  GLY26       0.2014
     20  C          8.0240   27.5200   11.7030 C.2    26  GLY26       0.2639
     21  O          8.5160   28.4830   11.1270 O.2    26  GLY26      -0.2714
     22  N          8.1460   26.2660   11.2540 N.am   27  LYS27      -0.1963
     23  CA         8.9150   25.9720   10.0270 C.3    27  LYS27       0.1728
     24  C          8.3830   26.7470    8.8210 C.2    27  LYS27       0.2617
     25  O          9.1530   27.4060    8.1130 O.2    27  LYS27      -0.2715
     26  CB         8.9620   24.4660    9.7240 C.3    27  LYS27       0.0311
     27  CG         9.4910   23.6040   10.8660 C.3    27  LYS27       0.0038
     28  CD         9.5050   22.1170   10.4980 C.3    27  LYS27       0.0206
     29  CE         8.0950   21.5810   10.2010 C.3    27  LYS27       0.1093
     30  NZ         7.1990   21.6140   11.3990 N.3    27  LYS27      -0.1314
     31  N          7.0690   26.6720    8.5960 N.am   28  SER28      -0.1936
     32  CA         6.4420   27.3360    7.4490 C.3    28  SER28       0.2055
     33  C          6.5190   28.8490    7.5330 C.2    28  SER28       0.2643
     34  O          6.7970   29.5020    6.5340 O.2    28  SER28      -0.2714
     35  CB         4.9830   26.9000    7.2730 C.3    28  SER28       0.2130
     36  OG         4.8870   25.4990    7.0540 O.3    28  SER28      -0.2179
     37  N          6.2810   29.4080    8.7210 N.am   29  CYS29      -0.1967
     38  CA         6.4210   30.8590    8.9010 C.3    29  CYS29       0.1712
     39  C          7.8650   31.3570    8.7280 C.2    29  CYS29       0.2296
     40  O          8.0840   32.4620    8.2220 O.2    29  CYS29      -0.2864
     41  CB         5.8450   31.3100   10.2460 C.3    29  CYS29       0.0983
     42  SG         4.0410   31.2860   10.3030 S.3    29  CYS29      -0.0798
     43  N          4.2120   37.1080    6.9410 N.3    39  TYR39      -0.1227
     44  CA         3.9330   36.3260    8.1470 C.3    39  TYR39       0.1736
     45  C          2.4350   36.1550    8.3670 C.2    39  TYR39       0.2596
     46  O          1.6520   37.0240    7.9930 O.2    39  TYR39      -0.2718
     47  CB         4.5560   37.0050    9.3690 C.3    39  TYR39       0.0548
     48  CG         4.2910   36.2950   10.6770 C.ar   39  TYR39      -0.0200
     49  CD1        5.0200   35.1620   11.0330 C.ar   39  TYR39      -0.0009
     50  CD2        3.3100   36.7550   11.5570 C.ar   39  TYR39      -0.0009
     51  CE1        4.7760   34.5030   12.2260 C.ar   39  TYR39       0.0417
     52  CE2        3.0590   36.1030   12.7480 C.ar   39  TYR39       0.0417
     53  CZ         3.8000   34.9810   13.0800 C.ar   39  TYR39       0.1957
     54  OH         3.5680   34.3340   14.2640 O.3    39  TYR39      -0.2866
     55  N          2.0460   35.0390    8.9870 N.am   40  THR40      -0.1939
     56  CA         0.6550   34.8120    9.3700 C.3    40  THR40       0.2028
     57  C          0.5140   34.2950   10.7960 C.2    40  THR40       0.2642
     58  O          1.3300   33.4930   11.2690 O.2    40  THR40      -0.2714
     59  CB        -0.0770   33.8530    8.4010 C.3    40  THR40       0.1808
     60  OG1       -1.4520   33.7450    8.7960 O.3    40  THR40      -0.2208
     61  CG2        0.5650   32.4540    8.3970 C.3    40  THR40       0.0379
     62  N         -0.5380   34.7650   11.4660 N.am   41  ASN41      -0.1957
     63  CA        -0.9160   34.2920   12.7930 C.3    41  ASN41       0.1819
     64  C         -1.5710   32.9180   12.7130 C.2    41  ASN41       0.2621
     65  O         -1.6370   32.1930   13.7040 O.2    41  ASN41      -0.2715
     66  CB        -1.8610   35.2920   13.4630 C.3    41  ASN41       0.1195
     67  CG        -1.4020   36.6810   13.6940 C.2    41  ASN41       0.2630
     68  OD1       -0.1680   37.0190   13.6820 O.2    41  ASN41      -0.2716
     69  ND2       -2.3480   37.5630   13.7930 N.am   41  ASN41      -0.0877
     70  N         -2.0560   32.5730   11.5250 N.am   42  ASP42      -0.1957
     71  CA        -2.7230   31.2950   11.2950 C.3    42  ASP42       0.1840
     72  C         -1.7860   30.1030   11.4110 C.2    42  ASP42       0.2622
     73  O         -0.6180   30.1710   11.0210 O.2    42  ASP42      -0.2715
     74  CB        -3.3690   31.2760    9.9160 C.3    42  ASP42       0.1450
     75  CG        -4.5480   32.2120    9.8140 C.2    42  ASP42       0.3671
     76  OD1       -5.0080   32.7090   10.8630 O.co2  42  ASP42      -0.2456
     77  OD2       -5.0160   32.4360    8.6770 O.co2  42  ASP42      -0.2456
     78  N         -2.3300   29.0170   11.9470 N.am   43  TYR43      -0.1960
     79  CA        -1.6320   27.7600   12.1010 C.3    43  TYR43       0.1771
     80  C         -2.2500   26.7920   11.0860 C.2    43  TYR43       0.2619
     81  O         -3.1940   26.0510   11.3990 O.2    43  TYR43      -0.2715
     82  CB        -1.8040   27.2800   13.5470 C.3    43  TYR43       0.0574
     83  CG        -1.0480   26.0370   13.9800 C.ar   43  TYR43      -0.0198
     84  CD1       -0.6100   25.0820   13.0630 C.ar   43  TYR43      -0.0009
     85  CD2       -0.8120   25.8010   15.3350 C.ar   43  TYR43      -0.0009
     86  CE1        0.0550   23.9440   13.4840 C.ar   43  TYR43       0.0417
     87  CE2       -0.1500   24.6690   15.7610 C.ar   43  TYR43       0.0417
     88  CZ         0.2760   23.7460   14.8300 C.ar   43  TYR43       0.1957
     89  OH         0.9270   22.6280   15.2590 O.3    43  TYR43      -0.2866
     90  N         -1.7340   26.8470    9.8570 N.am   44  ILE44      -0.1963
     91  CA        -2.1690   25.9730    8.7720 C.3    44  ILE44       0.1727
     92  C         -1.1060   24.8980    8.6510 C.2    44  ILE44       0.2617
     93  O         -0.0340   25.1290    8.0750 O.2    44  ILE44      -0.2715
     94  CB        -2.2950   26.7260    7.4020 C.3    44  ILE44       0.0290
     95  CG1       -3.0210   28.0790    7.5400 C.3    44  ILE44       0.0022
     96  CG2       -2.9420   25.8330    6.3480 C.3    44  ILE44       0.0023
     97  CD1       -4.4240   28.0210    8.1630 C.3    44  ILE44       0.0001
     98  N         -1.4000   23.7390    9.2280 N.am   45  SER45      -0.1936
     99  CA        -0.4670   22.6390    9.3010 C.3    45  SER45       0.2055
    100  C         -0.1120   22.1310    7.9000 C.2    45  SER45       0.2643
    101  O         -0.9810   21.9430    7.0530 O.2    45  SER45      -0.2714
    102  CB        -1.0560   21.5300   10.1640 C.3    45  SER45       0.2130
    103  OG        -0.0460   20.6810   10.6650 O.3    45  SER45      -0.2179
    104  N          1.1820   21.9320    7.6670 N.am   46  THR46      -0.1950
    105  CA         1.6980   21.5640    6.3600 C.3    46  THR46       0.1897
    106  C          1.4300   20.0920    6.0690 C.2    46  THR46       0.2313
    107  O          1.6160   19.2310    6.9310 O.2    46  THR46      -0.2863
    108  CB         3.2110   21.8880    6.2810 C.3    46  THR46       0.1794
    109  OG1        3.4050   23.2670    6.6200 O.3    46  THR46      -0.2208
    110  CG2        3.8000   21.6170    4.8850 C.3    46  THR46       0.0378
    111  N          8.2530   20.7980    5.5110 N.3    70  THR70      -0.1218
    112  CA         7.7910   19.4530    5.8140 C.3    70  THR70       0.1862
    113  C          6.6570   19.4410    6.8400 C.2    70  THR70       0.2287
    114  O          6.5230   20.3700    7.6490 O.2    70  THR70      -0.2866
    115  CB         8.9480   18.5460    6.3340 C.3    70  THR70       0.1770
    116  OG1        9.3940   19.0090    7.6160 O.3    70  THR70      -0.2211
    117  CG2       10.1110   18.5470    5.3660 C.3    70  THR70       0.0375
    118  N          5.0280   18.6320   10.1740 N.3    72  GLY72      -0.1225
    119  CA         5.3530   18.2870   11.5600 C.3    72  GLY72       0.1811
    120  C          4.4180   17.2410   12.1550 C.2    72  GLY72       0.2280
    121  O          4.8120   16.4850   13.0420 O.2    72  GLY72      -0.2866
    122  N         12.9240   28.7150   17.4400 N.3   127  ASN127     -0.1225
    123  CA        12.0420   29.7710   16.9330 C.3   127  ASN127      0.1785
    124  C         11.1370   30.3700   18.0150 C.2   127  ASN127      0.2597
    125  O         11.0480   29.8350   19.1160 O.2   127  ASN127     -0.2718
    126  CB        11.2090   29.2550   15.7490 C.3   127  ASN127      0.1169
    127  CG        10.5320   30.3780   14.9670 C.2   127  ASN127      0.2627
    128  OD1       11.1570   31.3800   14.6250 O.2   127  ASN127     -0.2716
    129  ND2        9.2530   30.2060   14.6750 N.am  127  ASN127     -0.0877
    130  N         10.4580   31.4660   17.6660 N.am  128  LYS128     -0.1980
    131  CA         9.5320   32.1930   18.5470 C.3   128  LYS128      0.1596
    132  C         10.2530   32.9180   19.6840 C.2   128  LYS128      0.2287
    133  O          9.7220   33.0440   20.7900 O.2   128  LYS128     -0.2864
    134  CB         8.4150   31.2880   19.0960 C.3   128  LYS128      0.0298
    135  CG         7.7170   30.4310   18.0470 C.3   128  LYS128      0.0038
    136  CD         6.3320   30.0100   18.5080 C.3   128  LYS128      0.0206
    137  CE         5.7060   29.0920   17.4690 C.3   128  LYS128      0.1093
    138  NZ         4.3920   28.5270   17.8770 N.3   128  LYS128     -0.1314
    139  N         10.6380   35.8920   20.0300 N.3   130  ASP130     -0.1225
    140  CA         9.8570   37.1000   20.3350 C.3   130  ASP130      0.1805
    141  C          8.9920   36.9050   21.5760 C.2   130  ASP130      0.2597
    142  O          8.6140   37.8740   22.2410 O.2   130  ASP130     -0.2718
    143  CB         8.9800   37.5150   19.1450 C.3   130  ASP130      0.1424
    144  CG         8.0310   36.4090   18.6910 C.2   130  ASP130      0.3668
    145  OD1        8.4820   35.4540   18.0220 O.co2 130  ASP130     -0.2456
    146  OD2        6.8250   36.4980   18.9970 O.co2 130  ASP130     -0.2456
    147  N          8.6850   35.6440   21.8800 N.am  131  LEU131     -0.1979
    148  CA         7.8810   35.2860   23.0380 C.3   131  LEU131      0.1596
    149  C          8.7430   35.1750   24.3000 C.2   131  LEU131      0.2287
    150  O          8.7380   34.1500   24.9700 O.2   131  LEU131     -0.2864
    151  CB         7.1190   33.9750   22.7710 C.3   131  LEU131      0.0297
    152  CG         6.0800   33.9520   21.6400 C.3   131  LEU131      0.0022
    153  CD1        5.3880   32.5960   21.5750 C.3   131  LEU131      0.0001
    154  CD2        5.0530   35.0640   21.7950 C.3   131  LEU131      0.0001
    155  N         12.8380   34.5280   15.2060 N.3   157  SER157     -0.1202
    156  CA        11.4240   34.8200   15.3090 C.3   157  SER157      0.2020
    157  C         10.9200   35.1400   13.9140 C.2   157  SER157      0.2619
    158  O         11.3000   36.1580   13.3200 O.2   157  SER157     -0.2717
    159  CB        11.1730   35.9820   16.2730 C.3   157  SER157      0.2103
    160  OG         9.9020   36.5660   16.0470 O.3   157  SER157     -0.2182
    161  N         10.0880   34.2500   13.3800 N.am  158  ALA158     -0.1965
    162  CA         9.4280   34.4860   12.0960 C.3   158  ALA158      0.1728
    163  C          8.4850   35.6780   12.2090 C.2   158  ALA158      0.2616
    164  O          8.2370   36.3800   11.2270 O.2   158  ALA158     -0.2715
    165  CB         8.6680   33.2530   11.6620 C.3   158  ALA158      0.0334
    166  N          7.9560   35.8880   13.4140 N.am  159  LEU159     -0.1977
    167  CA         7.0570   37.0040   13.6900 C.3   159  LEU159      0.1596
    168  C          7.7120   38.3720   13.4760 C.2   159  LEU159      0.2287
    169  O          7.1790   39.1870   12.7230 O.2   159  LEU159     -0.2864
    170  CB         6.4360   36.8770   15.0960 C.3   159  LEU159      0.0297
    171  CG         5.5160   37.9620   15.7000 C.3   159  LEU159      0.0022
    172  CD1        4.6070   38.6150   14.6910 C.3   159  LEU159      0.0001
    173  CD2        4.6710   37.3840   16.8040 C.3   159  LEU159      0.0001
@<TRIPOS>BOND
     1   110   108    1
     2   117   115    1
     3   111   112    1
     4   112   115    1
     5   112   113    1
     6   106   105    1
     7   106   107    2
     8   108   105    1
     9   108   109    1
    10   115   116    1
    11    96    94    1
    12   105   104    1
    13    34    33    2
    14   113   114    2
    15    43    44    1
    16   101   100    2
    17    36    35    1
    18    35    32    1
    19    94    95    1
    20    94    91    1
    21    32    33    1
    22    32    31    1
    23    33    37   am
    24    95    97    1
    25   104   100   am
    26   100    99    1
    27    46    45    2
    28    93    92    2
    29    25    24    2
    30    44    45    1
    31    44    47    1
    32    40    39    2
    33    45    55   am
    34    61    59    1
    35    59    60    1
    36    59    56    1
    37    31    24   am
    38    92    91    1
    39    92    98   am
    40    77    75   ar
    41    37    38    1
    42    39    38    1
    43    91    90    1
    44    24    23    1
    45    38    41    1
    46    55    56    1
    47    98    99    1
    48    99   102    1
    49    47    48    1
    50    56    57    1
    51    26    23    1
    52    26    27    1
    53    75    74    1
    54    75    76   ar
    55    90    80   am
    56    74    71    1
    57    23    22    1
    58   102   103    1
    59   118   119    1
    60    29    28    1
    61    29    30    1
    62    41    42    1
    63    28    27    1
    64    48    49   ar
    65    48    50   ar
    66    57    58    2
    67    57    62   am
    68    73    72    2
    69    49    51   ar
    70    80    81    2
    71    80    79    1
    72    21    20    2
    73   164   163    2
    74    22    20   am
    75    71    72    1
    76    71    70    1
    77    72    78   am
    78    62    63    1
    79    70    64   am
    80    50    52   ar
    81   119   120    1
    82   165   162    1
    83    20    19    1
    84    78    79    1
    85   162   163    1
    86   162   161    1
    87    79    82    1
    88   120   121    2
    89   163   166   am
    90    51    53   ar
    91    64    63    1
    92    64    65    2
    93   169   168    2
    94    52    53   ar
    95    63    66    1
    96    19    18    1
    97    84    86   ar
    98    84    83   ar
    99    53    54    1
   100   158   157    2
   101   161   157   am
   102   166   167    1
   103    66    67    1
   104   168   167    1
   105    86    88   ar
   106    82    83    1
   107    68    67    2
   108   167   170    1
   109    67    69   am
   110     6     5    1
   111    18    13   am
   112   157   156    1
   113    83    85   ar
   114     5     2    1
   115     2     1    1
   116     2     3    1
   117    17    15    1
   118   128   127    2
   119     7     3   am
   120     7     8    1
   121   129   127   am
   122   172   171    1
   123    88    89    1
   124    88    87   ar
   125   127   126    1
   126    13    14    2
   127    13    12    1
   128   170   171    1
   129   155   156    1
   130     3     4    2
   131   156   159    1
   132    85    87   ar
   133     8     9    1
   134    11     9   am
   135    11    12    1
   136   171   173    1
   137     9    10    2
   138   126   123    1
   139    12    15    1
   140    15    16    1
   141   160   159    1
   142   123   122    1
   143   123   124    1
   144   137   138    1
   145   137   136    1
   146   130   124   am
   147   130   131    1
   148   124   125    2
   149   145   144   ar
   150   135   136    1
   151   135   134    1
   152   131   134    1
   153   131   132    1
   154   144   146   ar
   155   144   143    1
   156   143   140    1
   157   132   133    2
   158   139   140    1
   159   140   141    1
   160   153   152    1
   161   141   147   am
   162   141   142    2
   163   152   154    1
   164   152   151    1
   165   147   148    1
   166   151   148    1
   167   148   149    1
   168   149   150    2
