@<TRIPOS>MOLECULE
tmp/1z03E00.pdb
 160 154 0 0 0
SMALL
GASTEIGER

@<TRIPOS>ATOM
      1  N         75.1000  152.6160   21.8760 N.3   201  GLY201     -0.1210
      2  CA        75.8990  153.7270   22.3700 C.3   201  GLY201      0.1956
      3  C         75.6500  155.1480   21.9020 C.2   201  GLY201      0.2612
      4  O         75.7350  156.0760   22.7080 O.2   201  GLY201     -0.2717
      5  N         75.3570  155.3440   20.6180 N.am  202  PHE202     -0.1962
      6  CA        75.1310  156.6980   20.1120 C.3   202  PHE202      0.1771
      7  C         73.6680  157.0180   19.8160 C.2   202  PHE202      0.2620
      8  O         73.3710  157.9550   19.0720 O.2   202  PHE202     -0.2715
      9  CB        76.0030  156.9500   18.8690 C.3   202  PHE202      0.0574
     10  CG        75.8160  155.9380   17.7770 C.ar  202  PHE202     -0.0200
     11  CD1       74.8780  156.1410   16.7700 C.ar  202  PHE202     -0.0042
     12  CD2       76.5530  154.7570   17.7760 C.ar  202  PHE202     -0.0042
     13  CE1       74.6730  155.1750   15.7740 C.ar  202  PHE202     -0.0003
     14  CE2       76.3530  153.7840   16.7830 C.ar  202  PHE202     -0.0003
     15  CZ        75.4120  153.9960   15.7840 C.ar  202  PHE202     -0.0000
     16  N         72.7610  156.2460   20.4110 N.am  203  ASP203     -0.1957
     17  CA        71.3200  156.4510   20.2420 C.3   203  ASP203      0.1840
     18  C         70.8530  157.4030   21.3520 C.2   203  ASP203      0.2622
     19  O         70.9350  157.0780   22.5380 O.2   203  ASP203     -0.2715
     20  CB        70.5910  155.1140   20.3520 C.3   203  ASP203      0.1450
     21  CG        69.1130  155.2300   20.0490 C.2   203  ASP203      0.3671
     22  OD1       68.6200  154.4400   19.2160 O.co2 203  ASP203     -0.2456
     23  OD2       68.4430  156.1030   20.6410 O.co2 203  ASP203     -0.2456
     24  N         70.3580  158.5750   20.9650 N.am  204  ASN204     -0.1972
     25  CA        69.9420  159.5750   21.9430 C.3   204  ASN204      0.1688
     26  C         68.5840  159.3890   22.6010 C.2   204  ASN204      0.2292
     27  O         68.1620  160.2170   23.4110 O.2   204  ASN204     -0.2864
     28  CB        70.0510  160.9630   21.3250 C.3   204  ASN204      0.1181
     29  CG        71.4640  161.2780   20.8830 C.2   204  ASN204      0.2629
     30  OD1       72.3970  161.2670   21.6890 O.2   204  ASN204     -0.2716
     31  ND2       71.6360  161.5490   19.5970 N.am  204  ASN204     -0.0877
     32  N         67.9560  156.1870   23.7780 N.3   206  HIS206     -0.1226
     33  CA        68.2540  155.0800   24.6770 C.3   206  HIS206      0.1752
     34  C         68.6740  155.4910   26.0830 C.2   206  HIS206      0.2595
     35  O         68.5840  154.6850   26.9970 O.2   206  HIS206     -0.2718
     36  CB        69.3290  154.1640   24.0670 C.3   206  HIS206      0.0759
     37  CG        70.6960  154.3750   24.6360 C.ar  206  HIS206      0.0818
     38  ND1       71.5230  155.4000   24.2280 N.ar  206  HIS206     -0.2268
     39  CD2       71.3580  153.7290   25.6250 C.ar  206  HIS206      0.1154
     40  CE1       72.6330  155.3780   24.9440 C.ar  206  HIS206      0.1986
     41  NE2       72.5550  154.3740   25.7990 N.ar  206  HIS206     -0.2212
     42  N         69.1230  156.7290   26.2740 N.am  207  ILE207     -0.1980
     43  CA        69.5560  157.1490   27.6060 C.3   207  ILE207      0.1595
     44  C         68.5160  156.9570   28.7130 C.2   207  ILE207      0.2287
     45  O         68.8210  157.1380   29.8960 O.2   207  ILE207     -0.2864
     46  CB        70.0590  158.6210   27.6240 C.3   207  ILE207      0.0276
     47  CG1       69.0930  159.5330   26.8600 C.3   207  ILE207      0.0022
     48  CG2       71.4610  158.6890   27.0550 C.3   207  ILE207      0.0022
     49  CD1       69.4800  161.0030   26.9070 C.3   207  ILE207      0.0001
     50  N         69.2490  154.6230   31.6160 N.3   210  HIS210     -0.1241
     51  CA        70.1080  155.0640   32.7090 C.3   210  HIS210      0.1621
     52  C         69.3970  155.9320   33.7430 C.2   210  HIS210      0.2264
     53  O         70.0240  156.3900   34.7010 O.2   210  HIS210     -0.2867
     54  CB        71.2960  155.8410   32.1480 C.3   210  HIS210      0.0745
     55  CG        72.1230  155.0550   31.1870 C.ar  210  HIS210      0.0817
     56  ND1       72.8890  153.9770   31.5740 N.ar  210  HIS210     -0.2268
     57  CD2       72.3030  155.1870   29.8530 C.ar  210  HIS210      0.1154
     58  CE1       73.5070  153.4800   30.5190 C.ar  210  HIS210      0.1986
     59  NE2       73.1680  154.1970   29.4630 N.ar  210  HIS210     -0.2212
     60  N         70.5900  164.2860   33.4690 N.3   223  LEU223     -0.1245
     61  CA        70.5210  163.3520   32.3580 C.3   223  LEU223      0.1561
     62  C         69.0740  163.3790   31.8900 C.2   223  LEU223      0.2260
     63  O         68.1780  162.9060   32.5910 O.2   223  LEU223     -0.2867
     64  CB        70.9080  161.9390   32.8160 C.3   223  LEU223      0.0270
     65  CG        71.3050  160.9530   31.7130 C.3   223  LEU223      0.0019
     66  CD1       72.6300  161.3600   31.1060 C.3   223  LEU223      0.0001
     67  CD2       71.4210  159.5640   32.2860 C.3   223  LEU223      0.0001
     68  N         78.5950  166.2930   27.0780 N.3   277  TYR277     -0.1241
     69  CA        79.3090  165.2280   26.3880 C.3   277  TYR277      0.1605
     70  C         78.8670  165.1950   24.9320 C.2   277  TYR277      0.2264
     71  O         77.8870  165.8400   24.5540 O.2   277  TYR277     -0.2867
     72  CB        78.9920  163.8920   27.0490 C.3   277  TYR277      0.0534
     73  CG        77.5250  163.5430   26.9770 C.ar  277  TYR277     -0.0201
     74  CD1       77.0060  162.8610   25.8810 C.ar  277  TYR277     -0.0009
     75  CD2       76.6460  163.9390   27.9840 C.ar  277  TYR277     -0.0009
     76  CE1       75.6480  162.5810   25.7820 C.ar  277  TYR277      0.0417
     77  CE2       75.2810  163.6640   27.8970 C.ar  277  TYR277      0.0417
     78  CZ        74.7900  162.9870   26.7950 C.ar  277  TYR277      0.1957
     79  OH        73.4400  162.7170   26.7110 O.3   277  TYR277     -0.2866
     80  N         78.7630  162.3080   21.4410 N.3   279  THR279     -0.1218
     81  CA        79.0560  161.0000   20.8730 C.3   279  THR279      0.1862
     82  C         79.2590  161.0350   19.3620 C.2   279  THR279      0.2287
     83  O         78.6560  161.8390   18.6550 O.2   279  THR279     -0.2866
     84  CB        77.9370  159.9790   21.1920 C.3   279  THR279      0.1770
     85  OG1       76.6710  160.4810   20.7370 O.3   279  THR279     -0.2211
     86  CG2       77.8630  159.7290   22.6850 C.3   279  THR279      0.0375
     87  N         82.8700  153.8470   19.1240 N.3   287  LEU287     -0.1245
     88  CA        82.1910  154.9670   19.7620 C.3   287  LEU287      0.1561
     89  C         83.1490  155.8360   20.5660 C.2   287  LEU287      0.2260
     90  O         84.0680  155.3310   21.2130 O.2   287  LEU287     -0.2867
     91  CB        81.1170  154.4520   20.7110 C.3   287  LEU287      0.0270
     92  CG        80.3970  155.4850   21.5730 C.3   287  LEU287      0.0019
     93  CD1       79.3190  156.1640   20.7450 C.3   287  LEU287      0.0001
     94  CD2       79.7790  154.8000   22.7810 C.3   287  LEU287      0.0001
     95  N         82.9250  159.0810   23.3370 N.3   289  VAL289     -0.1245
     96  CA        82.0720  159.9250   24.1640 C.3   289  VAL289      0.1561
     97  C         82.9930  160.9770   24.7680 C.2   289  VAL289      0.2260
     98  O         83.6860  160.7150   25.7540 O.2   289  VAL289     -0.2867
     99  CB        81.4140  159.1290   25.3130 C.3   289  VAL289      0.0252
    100  CG1       80.3250  159.9750   25.9880 C.3   289  VAL289      0.0019
    101  CG2       80.8480  157.8260   24.7720 C.3   289  VAL289      0.0019
    102  N         83.5660  162.5590   29.0000 N.3   292  TRP292     -0.1241
    103  CA        82.8600  161.5660   29.7990 C.3   292  TRP292      0.1605
    104  C         83.8630  160.6700   30.5080 C.2   292  TRP292      0.2264
    105  O         84.7960  160.1650   29.8840 O.2   292  TRP292     -0.2867
    106  CB        81.9440  160.7140   28.9120 C.3   292  TRP292      0.0550
    107  CG        81.0680  159.7990   29.7030 C.ar  292  TRP292      0.0003
    108  CD1       81.4050  158.5760   30.2180 C.ar  292  TRP292      0.0946
    109  CD2       79.7300  160.0690   30.1500 C.ar  292  TRP292      0.0152
    110  NE1       80.3570  158.0740   30.9640 N.ar  292  TRP292     -0.2442
    111  CE2       79.3200  158.9720   30.9380 C.ar  292  TRP292      0.0810
    112  CE3       78.8400  161.1360   29.9630 C.ar  292  TRP292      0.0012
    113  CZ2       78.0540  158.9100   31.5410 C.ar  292  TRP292      0.0191
    114  CZ3       77.5840  161.0750   30.5610 C.ar  292  TRP292      0.0001
    115  CH2       77.2030  159.9700   31.3410 C.ar  292  TRP292      0.0015
    116  N         85.5860  158.4100   26.8460 N.3   299  GLN299     -0.1245
    117  CA        85.2470  156.9890   26.8120 C.3   299  GLN299      0.1566
    118  C         85.1630  156.4510   25.3910 C.2   299  GLN299      0.2260
    119  O         84.5480  157.0590   24.5240 O.2   299  GLN299     -0.2867
    120  CB        83.9190  156.7210   27.5200 C.3   299  GLN299      0.0367
    121  CG        83.5950  155.2390   27.6170 C.3   299  GLN299      0.0905
    122  CD        82.5130  154.9360   28.6270 C.2   299  GLN299      0.2608
    123  OE1       82.4900  155.4970   29.7200 O.2   299  GLN299     -0.2717
    124  NE2       81.6210  154.0300   28.2740 N.am  299  GLN299     -0.0878
    125  N         84.4400  152.8150   23.0590 N.3   301  GLU301     -0.1245
    126  CA        83.8790  151.4670   23.0930 C.3   301  GLU301      0.1567
    127  C         83.9990  150.8120   21.7270 C.2   301  GLU301      0.2260
    128  O         83.9000  151.4680   20.6910 O.2   301  GLU301     -0.2867
    129  CB        82.4000  151.4850   23.4930 C.3   301  GLU301      0.0388
    130  CG        82.1160  152.1640   24.8230 C.3   301  GLU301      0.1160
    131  CD        80.7030  151.9140   25.2990 C.2   301  GLU301      0.3649
    132  OE1       79.8480  151.5380   24.4720 O.co2 301  GLU301     -0.2457
    133  OE2       80.4450  152.0950   26.5020 O.co2 301  GLU301     -0.2457
    134  N         76.6520  152.1600   35.3920 N.3   346  PHE346     -0.1227
    135  CA        76.0950  152.9220   34.2810 C.3   346  PHE346      0.1736
    136  C         76.0260  152.0850   33.0060 C.2   346  PHE346      0.2595
    137  O         74.9560  151.8950   32.4390 O.2   346  PHE346     -0.2718
    138  CB        76.9250  154.1790   33.9990 C.3   346  PHE346      0.0547
    139  CG        76.2860  155.1150   33.0060 C.ar  346  PHE346     -0.0202
    140  CD1       75.3390  156.0530   33.4180 C.ar  346  PHE346     -0.0042
    141  CD2       76.6100  155.0450   31.6520 C.ar  346  PHE346     -0.0042
    142  CE1       74.7210  156.9100   32.4940 C.ar  346  PHE346     -0.0003
    143  CE2       76.0010  155.8950   30.7180 C.ar  346  PHE346     -0.0003
    144  CZ        75.0540  156.8290   31.1410 C.ar  346  PHE346     -0.0000
    145  N         77.1610  151.5620   32.5620 N.am  347  ASN347     -0.1974
    146  CA        77.1750  150.7860   31.3300 C.3   347  ASN347      0.1688
    147  C         76.6450  149.3570   31.4120 C.2   347  ASN347      0.2292
    148  O         76.3780  148.7360   30.3740 O.2   347  ASN347     -0.2864
    149  CB        78.5760  150.7980   30.7260 C.3   347  ASN347      0.1181
    150  CG        78.9480  152.1640   30.1620 C.2   347  ASN347      0.2629
    151  OD1       79.9140  152.7860   30.6020 O.2   347  ASN347     -0.2716
    152  ND2       78.1720  152.6380   29.1850 N.am  347  ASN347     -0.0877
    153  N         73.4780  148.9360   29.6980 N.3   350  ASP350     -0.1239
    154  CA        73.5800  148.7810   28.2430 C.3   350  ASP350      0.1674
    155  C         73.8000  147.3270   27.8540 C.2   350  ASP350      0.2266
    156  O         73.3550  146.8820   26.7920 O.2   350  ASP350     -0.2867
    157  CB        74.7370  149.6180   27.7000 C.3   350  ASP350      0.1410
    158  CG        74.4940  151.0990   27.8590 C.2   350  ASP350      0.3668
    159  OD1       75.3350  151.7990   28.4720 O.co2 350  ASP350     -0.2456
    160  OD2       73.4370  151.5550   27.3690 O.co2 350  ASP350     -0.2456
@<TRIPOS>BOND
     1    13    15   ar
     2    13    11   ar
     3    15    14   ar
     4    11    10   ar
     5    14    12   ar
     6    12    10   ar
     7    10     9    1
     8    83    82    2
     9     9     6    1
    10     8     7    2
    11    87    88    1
    12    22    21   ar
    13    82    81    1
    14    31    29   am
    15    88    89    1
    16    88    91    1
    17     7     6    1
    18     7    16   am
    19    21    20    1
    20    21    23   ar
    21     6     5    1
    22    17    20    1
    23    17    16    1
    24    17    18    1
    25    89    90    2
    26     5     3   am
    27   128   127    2
    28    91    92    1
    29    85    84    1
    30    93    92    1
    31    81    84    1
    32    81    80    1
    33    29    28    1
    34    29    30    2
    35    24    18   am
    36    24    25    1
    37    84    86    1
    38    28    25    1
    39    18    19    2
    40    92    94    1
    41   127   126    1
    42     1     2    1
    43     3     2    1
    44     3     4    2
    45    25    26    1
    46    26    27    2
    47   125   126    1
    48   126   129    1
    49    95    96    1
    50   129   130    1
    51    32    33    1
    52    36    37    1
    53    36    33    1
    54    96    97    1
    55    96    99    1
    56    38    37   ar
    57    38    40   ar
    58   132   131   ar
    59   119   118    2
    60    71    70    2
    61    37    39   ar
    62    33    34    1
    63    97    98    2
    64   101    99    1
    65   130   131    1
    66    70    69    1
    67    40    41   ar
    68   131   133   ar
    69    99   100    1
    70   118   117    1
    71    39    41   ar
    72    76    74   ar
    73    76    78   ar
    74    74    73   ar
    75    34    42   am
    76    34    35    2
    77    42    43    1
    78    69    72    1
    79    69    68    1
    80    79    78    1
    81   156   155    2
    82    78    77   ar
    83   117   116    1
    84   117   120    1
    85    47    49    1
    86    47    46    1
    87    73    72    1
    88    73    75   ar
    89    48    46    1
    90   160   158   ar
    91   120   121    1
    92    43    46    1
    93    43    44    1
    94   121   122    1
    95   157   158    1
    96   157   154    1
    97   155   154    1
    98   158   159   ar
    99    77    75   ar
   100   154   153    1
   101   124   122   am
   102   122   123    2
   103    44    45    2
   104   106   107    1
   105   106   103    1
   106   102   103    1
   107   152   150   am
   108    59    57   ar
   109    59    58   ar
   110   107   109   ar
   111   107   108   ar
   112   103   104    1
   113    57    55   ar
   114   105   104    2
   115   112   109   ar
   116   112   114   ar
   117   109   111   ar
   118   150   151    2
   119   150   149    1
   120   108   110   ar
   121   148   147    2
   122    58    56   ar
   123   114   115   ar
   124   143   144   ar
   125   143   141   ar
   126   149   146    1
   127   111   110   ar
   128   111   113   ar
   129    66    65    1
   130   144   142   ar
   131    55    56   ar
   132    55    54    1
   133   146   147    1
   134   146   145    1
   135   115   113   ar
   136    50    51    1
   137   141   139   ar
   138    65    67    1
   139    65    64    1
   140    62    61    1
   141    62    63    2
   142    54    51    1
   143    61    64    1
   144    61    60    1
   145   137   136    2
   146   142   140   ar
   147   145   136   am
   148    51    52    1
   149   139   140   ar
   150   139   138    1
   151   136   135    1
   152    52    53    2
   153   138   135    1
   154   135   134    1
