@<TRIPOS>MOLECULE
tmp/1z06A00.pdb
 182 176 0 0 0
SMALL
GASTEIGER

@<TRIPOS>ATOM
      1  N         -0.6870   10.1870    8.8800 N.3    11  SER11      -0.1202
      2  CA        -1.8630   11.0380    8.9270 C.3    11  SER11       0.2020
      3  C         -1.5720   12.2560    9.8050 C.2    11  SER11       0.2619
      4  O         -0.9360   12.1350   10.8440 O.2    11  SER11      -0.2717
      5  CB        -3.0690   10.2490    9.4610 C.3    11  SER11       0.2103
      6  OG        -4.2610   11.0040    9.3860 O.3    11  SER11      -0.2182
      7  N         -1.9820   13.4230    9.3110 N.am   12  ASN12      -0.1960
      8  CA        -1.9710   14.7190   10.0170 C.3    12  ASN12       0.1819
      9  C         -0.6720   15.5150    9.9040 C.2    12  ASN12       0.2621
     10  O         -0.5510   16.5730   10.5140 O.2    12  ASN12      -0.2715
     11  CB        -2.3920   14.5960   11.4990 C.3    12  ASN12       0.1195
     12  CG        -3.0460   15.8780   12.0260 C.2    12  ASN12       0.2630
     13  OD1       -4.0420   16.3490   11.4680 O.2    12  ASN12      -0.2716
     14  ND2       -2.4880   16.4460   13.0850 N.am   12  ASN12      -0.0877
     15  N          0.2890   15.0350    9.1100 N.am   13  VAL13      -0.1963
     16  CA         1.5640   15.7410    8.9650 C.3    13  VAL13       0.1727
     17  C          1.4570   16.9560    8.0380 C.2    13  VAL13       0.2617
     18  O          2.3080   17.8360    8.0710 O.2    13  VAL13      -0.2715
     19  CB         2.7270   14.8210    8.5090 C.3    13  VAL13       0.0290
     20  CG1        2.9080   13.6410    9.4840 C.3    13  VAL13       0.0023
     21  CG2        2.5220   14.3430    7.0850 C.3    13  VAL13       0.0023
     22  N          0.4090   17.0030    7.2220 N.am   14  GLY14      -0.1940
     23  CA         0.1650   18.1460    6.3390 C.3    14  GLY14       0.2014
     24  C          0.3580   17.8790    4.8550 C.2    14  GLY14       0.2639
     25  O          0.5970   18.8150    4.0900 O.2    14  GLY14      -0.2714
     26  N          0.2470   16.6200    4.4250 N.am   15  LYS15      -0.1963
     27  CA         0.4800   16.2840    3.0090 C.3    15  LYS15       0.1728
     28  C         -0.5230   16.9830    2.0830 C.2    15  LYS15       0.2617
     29  O         -0.1410   17.5690    1.0600 O.2    15  LYS15      -0.2715
     30  CB         0.4340   14.7600    2.8120 C.3    15  LYS15       0.0311
     31  CG         1.4420   14.0230    3.6760 C.3    15  LYS15       0.0038
     32  CD         1.4400   12.5320    3.4310 C.3    15  LYS15       0.0206
     33  CE         0.1270   11.8690    3.8140 C.3    15  LYS15       0.1093
     34  NZ        -0.2880   12.1580    5.2290 N.3    15  LYS15      -0.1314
     35  N         -1.8000   16.9430    2.4520 N.am   16  THR16      -0.1937
     36  CA        -2.8560   17.6210    1.6890 C.3    16  THR16       0.2028
     37  C         -2.5980   19.1350    1.6240 C.2    16  THR16       0.2642
     38  O         -2.7050   19.7630    0.5600 O.2    16  THR16      -0.2714
     39  CB        -4.2590   17.2620    2.2720 C.3    16  THR16       0.1808
     40  OG1       -4.4870   15.8470    2.1150 O.3    16  THR16      -0.2208
     41  CG2       -5.3960   18.0380    1.5810 C.3    16  THR16       0.0379
     42  N         -2.2120   19.7170    2.7490 N.am   17  CYS17      -0.1967
     43  CA        -1.9060   21.1490    2.7910 C.3    17  CYS17       0.1712
     44  C         -0.6980   21.5390    1.9400 C.2    17  CYS17       0.2296
     45  O         -0.7200   22.5780    1.2790 O.2    17  CYS17      -0.2864
     46  CB        -1.7330   21.6210    4.2320 C.3    17  CYS17       0.0983
     47  SG        -3.2850   21.6260    5.1530 S.3    17  CYS17      -0.0798
     48  N         -3.0900   28.0130    1.1780 N.3    27  PHE27      -0.1228
     49  CA        -3.3150   26.9860    2.1930 C.3    27  PHE27       0.1721
     50  C         -4.7920   26.6150    2.2170 C.2    27  PHE27       0.2437
     51  O         -5.6560   27.4990    2.1600 O.2    27  PHE27      -0.2733
     52  CB        -2.8710   27.5390    3.5530 C.3    27  PHE27       0.0547
     53  CG        -2.9240   26.5510    4.6840 C.ar   27  PHE27      -0.0202
     54  CD1       -1.8820   25.6600    4.8950 C.ar   27  PHE27      -0.0042
     55  CD2       -3.9890   26.5460    5.5700 C.ar   27  PHE27      -0.0042
     56  CE1       -1.9180   24.7670    5.9580 C.ar   27  PHE27      -0.0003
     57  CE2       -4.0310   25.6700    6.6320 C.ar   27  PHE27      -0.0003
     58  CZ        -2.9910   24.7670    6.8240 C.ar   27  PHE27      -0.0000
     59  N         -5.1030   25.3030    2.2860 N.am   28  PRO28      -0.2718
     60  CA        -6.4840   24.8860    2.4090 C.3    28  PRO28       0.1535
     61  C         -6.9060   24.8650    3.8680 C.2    28  PRO28       0.2598
     62  O         -6.3660   24.1010    4.6620 O.2    28  PRO28      -0.2715
     63  CB        -6.4760   23.4730    1.8160 C.3    28  PRO28       0.0310
     64  CG        -5.1320   22.9610    2.1000 C.3    28  PRO28       0.0237
     65  CD        -4.1900   24.1400    2.2430 C.3    28  PRO28       0.0939
     66  N         -7.8700   25.7170    4.2100 N.am   29  ASP29      -0.1972
     67  CA        -8.3150   25.8630    5.5910 C.3    29  ASP29       0.1709
     68  C         -9.3830   24.8660    6.0410 C.2    29  ASP29       0.2293
     69  O         -9.6900   24.7920    7.2400 O.2    29  ASP29      -0.2864
     70  CB        -8.8160   27.2890    5.8110 C.3    29  ASP29       0.1436
     71  CG        -7.7170   28.3070    5.6510 C.2    29  ASP29       0.3671
     72  OD1       -6.7660   28.2880    6.4650 O.co2  29  ASP29      -0.2456
     73  OD2       -7.7980   29.1210    4.7140 O.co2  29  ASP29      -0.2456
     74  N         -9.6810   20.8940    5.8020 N.3    31  THR31      -0.1203
     75  CA        -9.1890   19.5840    5.3910 C.3    31  THR31       0.1994
     76  C         -9.6790   18.4980    6.3300 C.2    31  THR31       0.2618
     77  O         -9.9120   18.7410    7.5170 O.2    31  THR31      -0.2717
     78  CB        -7.6550   19.5400    5.3350 C.3    31  THR31       0.1784
     79  OG1       -7.1210   19.9190    6.6050 O.3    31  THR31      -0.2211
     80  CG2       -7.1190   20.4810    4.2600 C.3    31  THR31       0.0376
     81  N         -9.8440   17.3020    5.7770 N.am   32  GLU32      -0.1965
     82  CA       -10.1650   16.1160    6.5560 C.3    32  GLU32       0.1733
     83  C         -9.2160   15.0170    6.1160 C.2    32  GLU32       0.2616
     84  O         -8.5270   15.1630    5.1070 O.2    32  GLU32      -0.2715
     85  CB       -11.6010   15.7020    6.3100 C.3    32  GLU32       0.0429
     86  CG       -11.9510   15.5090    4.7960 C.3    32  GLU32       0.1163
     87  CD       -13.0850   16.4890    4.4090 C.2    32  GLU32       0.3649
     88  OE1      -12.9280   17.6750    4.6900 O.co2  32  GLU32      -0.2457
     89  OE2      -14.0500   15.9860    3.8460 O.co2  32  GLU32      -0.2457
     90  N         -9.1850   13.9160    6.8570 N.am   33  ALA33      -0.1963
     91  CA        -8.3070   12.8020    6.5010 C.3    33  ALA33       0.1728
     92  C         -8.5980   12.3910    5.0760 C.2    33  ALA33       0.2616
     93  O         -9.7590   12.2540    4.6810 O.2    33  ALA33      -0.2715
     94  CB        -8.5000   11.6240    7.4400 C.3    33  ALA33       0.0334
     95  N         -7.5390   12.2150    4.2970 N.am   34  THR34      -0.1951
     96  CA        -7.6730   11.9070    2.8820 C.3    34  THR34       0.1897
     97  C         -8.0060   10.4330    2.7170 C.2    34  THR34       0.2313
     98  O         -7.4310    9.5800    3.3810 O.2    34  THR34      -0.2863
     99  CB        -6.3810   12.2430    2.1430 C.3    34  THR34       0.1794
    100  OG1       -6.0860   13.6310    2.3410 O.3    34  THR34      -0.2208
    101  CG2       -6.4900   11.9430    0.6550 C.3    34  THR34       0.0378
    102  N         -1.4260   13.1020   -3.2210 N.3    57  ASP57      -0.1225
    103  CA        -1.6280   13.4120   -1.8570 C.3    57  ASP57       0.1805
    104  C         -2.0840   12.1350   -1.1360 C.2    57  ASP57       0.2598
    105  O         -3.2760   11.9740   -0.8740 O.2    57  ASP57      -0.2718
    106  CB        -2.7460   14.4560   -1.8370 C.3    57  ASP57       0.1424
    107  CG        -3.0800   14.8840   -0.4900 C.2    57  ASP57       0.3668
    108  OD1       -4.2240   15.3670   -0.3230 O.co2  57  ASP57      -0.2456
    109  OD2       -2.2070   14.7200    0.3940 O.co2  57  ASP57      -0.2456
    110  N         -1.1450   11.2400   -0.8120 N.am   58  THR58      -0.1953
    111  CA        -1.4970    9.9030   -0.3060 C.3    58  THR58       0.1897
    112  C         -2.1910    9.9180    1.0520 C.2    58  THR58       0.2313
    113  O         -2.0620   10.8740    1.8160 O.2    58  THR58      -0.2863
    114  CB        -0.2750    8.9460   -0.2250 C.3    58  THR58       0.1794
    115  OG1        0.6020    9.3280    0.8450 O.3    58  THR58      -0.2208
    116  CG2        0.4900    8.9260   -1.5580 C.3    58  THR58       0.0378
    117  N         -2.6600    8.8500    4.8370 N.3    60  GLY60      -0.1210
    118  CA        -1.8300    8.4350    5.9600 C.3    60  GLY60       0.1956
    119  C         -2.5220    7.3700    6.7900 C.2    60  GLY60       0.2611
    120  O         -1.8600    6.5450    7.4260 O.2    60  GLY60      -0.2717
    121  N         -3.8570    7.3970    6.8040 N.am   61  GLN61      -0.1979
    122  CA        -4.6230    6.4270    7.5800 C.3    61  GLN61       0.1601
    123  C         -4.6670    5.0580    6.9140 C.2    61  GLN61       0.2287
    124  O         -4.9680    4.9340    5.7350 O.2    61  GLN61      -0.2864
    125  CB        -6.0250    6.9570    7.8580 C.3    61  GLN61       0.0394
    126  CG        -5.9900    8.1920    8.7720 C.3    61  GLN61       0.0908
    127  CD        -7.3210    8.5000    9.4280 C.2    61  GLN61       0.2608
    128  OE1       -8.1680    7.6260    9.5890 O.2    61  GLN61      -0.2717
    129  NE2       -7.5080    9.7510    9.8130 N.am   61  GLN61      -0.0878
    130  N          7.3970   19.3940    8.1460 N.3   117  ASN117     -0.1225
    131  CA         6.3640   20.4060    7.9650 C.3   117  ASN117      0.1785
    132  C          5.9830   21.0540    9.2990 C.2   117  ASN117      0.2597
    133  O          6.3580   20.5550   10.3640 O.2   117  ASN117     -0.2718
    134  CB         5.1390   19.7750    7.2890 C.3   117  ASN117      0.1169
    135  CG         4.1240   20.8030    6.8130 C.2   117  ASN117      0.2627
    136  OD1        4.4770   21.9040    6.3650 O.2   117  ASN117     -0.2716
    137  ND2        2.8550   20.4470    6.9040 N.am  117  ASN117     -0.0877
    138  N          5.2500   22.1690    9.2100 N.am  118  LYS118     -0.1980
    139  CA         4.7090   22.8990   10.3640 C.3   118  LYS118      0.1596
    140  C          5.8080   23.6270   11.1330 C.2   118  LYS118      0.2287
    141  O          5.7220   23.7600   12.3540 O.2   118  LYS118     -0.2864
    142  CB         3.9020   21.9910   11.3040 C.3   118  LYS118      0.0298
    143  CG         2.8810   21.1030   10.6020 C.3   118  LYS118      0.0038
    144  CD         1.8160   20.6110   11.5480 C.3   118  LYS118      0.0206
    145  CE         0.9180   19.5920   10.8700 C.3   118  LYS118      0.1093
    146  NZ        -0.0470   18.9540   11.8310 N.3   118  LYS118     -0.1314
    147  N          6.3000   26.6250   11.2640 N.3   120  ASP120     -0.1225
    148  CA         5.7230   27.8680   11.8000 C.3   120  ASP120      0.1805
    149  C          5.3520   27.7580   13.2780 C.2   120  ASP120      0.2597
    150  O          5.2910   28.7700   13.9890 O.2   120  ASP120     -0.2718
    151  CB         4.4940   28.2790   10.9930 C.3   120  ASP120      0.1424
    152  CG         3.4320   27.2070   10.9570 C.2   120  ASP120      0.3668
    153  OD1        3.7100   26.1270   10.3840 O.co2 120  ASP120     -0.2456
    154  OD2        2.3260   27.4320   11.4930 O.co2 120  ASP120     -0.2456
    155  N          5.0990   26.5360   13.7390 N.am  121  LEU121     -0.1979
    156  CA         4.7610   26.2830   15.1350 C.3   121  LEU121      0.1596
    157  C          6.0460   26.1680   15.9570 C.2   121  LEU121      0.2287
    158  O          6.3280   25.1340   16.5560 O.2   121  LEU121     -0.2864
    159  CB         3.9160   25.0100   15.2420 C.3   121  LEU121      0.0297
    160  CG         2.6470   24.9750   14.3860 C.3   121  LEU121      0.0022
    161  CD1        1.9280   23.6410   14.5340 C.3   121  LEU121      0.0001
    162  CD2        1.7190   26.1350   14.7400 C.3   121  LEU121      0.0001
    163  N          6.8490   25.0730    5.9130 N.3   147  SER147     -0.1202
    164  CA         5.4960   25.2200    6.4240 C.3   147  SER147      0.2020
    165  C          4.5460   25.4160    5.2540 C.2   147  SER147      0.2619
    166  O          4.7300   26.3160    4.4390 O.2   147  SER147     -0.2717
    167  CB         5.3970   26.4030    7.3960 C.3   147  SER147      0.2103
    168  OG         4.0470   26.7840    7.6320 O.3   147  SER147     -0.2182
    169  N          3.5310   24.5630    5.1710 N.am  148  ALA148     -0.1965
    170  CA         2.4860   24.7280    4.1730 C.3   148  ALA148      0.1728
    171  C          1.6780   25.9960    4.4590 C.2   148  ALA148      0.2616
    172  O          1.1680   26.6390    3.5470 O.2   148  ALA148     -0.2715
    173  CB         1.5670   23.5120    4.1690 C.3   148  ALA148      0.0334
    174  N          1.5830   26.3490    5.7340 N.am  149  LYS149     -0.1977
    175  CA         0.7190   27.4360    6.1790 C.3   149  LYS149      0.1596
    176  C          1.3820   28.8150    6.1130 C.2   149  LYS149      0.2287
    177  O          0.7370   29.7700    5.6740 O.2   149  LYS149     -0.2864
    178  CB         0.2290   27.1430    7.6010 C.3   149  LYS149      0.0298
    179  CG        -0.9820   27.9750    8.0460 C.3   149  LYS149      0.0038
    180  CD        -1.6030   27.3990    9.3070 C.3   149  LYS149      0.0206
    181  CE        -2.9300   28.0690    9.6520 C.3   149  LYS149      0.1093
    182  NZ        -3.5970   27.4200   10.8250 N.3   149  LYS149     -0.1314
@<TRIPOS>BOND
     1   102   103    1
     2   103   106    1
     3   103   104    1
     4   106   107    1
     5   116   114    1
     6   104   105    2
     7   104   110   am
     8   110   111    1
     9   107   108   ar
    10   107   109   ar
    11   111   114    1
    12   111   112    1
    13   114   115    1
    14    38    37    2
    15   101    99    1
    16   112   113    2
    17    29    28    2
    18    48    49    1
    19    45    44    2
    20    41    39    1
    21    37    36    1
    22    37    42   am
    23    36    39    1
    24    36    35    1
    25    63    64    1
    26    63    60    1
    27    44    43    1
    28    28    35   am
    29    28    27    1
    30    64    65    1
    31    40    39    1
    32    99   100    1
    33    99    96    1
    34    51    50    2
    35    49    50    1
    36    49    52    1
    37    50    59   am
    38    65    59    1
    39    59    60    1
    40    60    61    1
    41    97    96    1
    42    97    98    2
    43    42    43    1
    44    43    46    1
    45    30    27    1
    46    30    31    1
    47    96    95    1
    48    27    26    1
    49    32    31    1
    50    32    33    1
    51   172   171    2
    52    52    53    1
    53    33    34    1
    54    89    87   ar
    55    61    66   am
    56    61    62    2
    57    25    24    2
    58   173   170    1
    59   170   171    1
    60   170   169    1
    61    66    67    1
    62    46    47    1
    63    80    78    1
    64    95    92   am
    65    87    88   ar
    66    87    86    1
    67    26    24   am
    68   166   165    2
    69   171   174   am
    70    93    92    2
    71    53    54   ar
    72    53    55   ar
    73    73    71   ar
    74    86    85    1
    75   117   118    1
    76    24    23    1
    77    54    56   ar
    78    92    91    1
    79    84    83    2
    80   169   165   am
    81   165   164    1
    82    78    75    1
    83    78    79    1
    84    75    74    1
    85    75    76    1
    86    55    57   ar
    87    67    70    1
    88    67    68    1
    89    71    70    1
    90    71    72   ar
    91   177   176    2
    92   174   175    1
    93   124   123    2
    94    81    76   am
    95    81    82    1
    96   163   164    1
    97    56    58   ar
    98   118   119    1
    99    68    69    2
   100   176   175    1
   101    83    82    1
   102    83    90   am
   103   175   178    1
   104    85    82    1
   105    76    77    2
   106    23    22    1
   107   136   135    2
   108   164   167    1
   109    91    90    1
   110    91    94    1
   111    57    58   ar
   112   119   121   am
   113   119   120    2
   114   121   122    1
   115   135   137   am
   116   135   134    1
   117   123   122    1
   118    21    19    1
   119    22    17   am
   120   134   131    1
   121   167   168    1
   122   122   125    1
   123   178   179    1
   124   125   126    1
   125   131   130    1
   126   131   132    1
   127    17    18    2
   128    17    16    1
   129   179   180    1
   130    19    16    1
   131    19    20    1
   132   126   127    1
   133     1     2    1
   134     2     5    1
   135     2     3    1
   136    16    15    1
   137    15     9   am
   138   138   132   am
   139   138   139    1
   140   132   133    2
   141   180   181    1
   142     7     3   am
   143     7     8    1
   144     6     5    1
   145   127   128    2
   146   127   129   am
   147   181   182    1
   148     3     4    2
   149     9     8    1
   150     9    10    2
   151     8    11    1
   152   139   140    1
   153   139   142    1
   154   153   152   ar
   155   143   142    1
   156   143   144    1
   157   145   144    1
   158   145   146    1
   159   152   151    1
   160   152   154   ar
   161   151   148    1
   162   140   141    2
   163   147   148    1
   164    13    12    2
   165    11    12    1
   166   148   149    1
   167    12    14   am
   168   149   155   am
   169   149   150    2
   170   155   156    1
   171   160   161    1
   172   160   162    1
   173   160   159    1
   174   156   159    1
   175   156   157    1
   176   157   158    2
