@<TRIPOS>MOLECULE
tmp/1z08C00.pdb
 200 195 0 0 0
SMALL
GASTEIGER

@<TRIPOS>ATOM
      1  N          5.8270   54.3280   14.3170 N.3    11  GLU11      -0.1231
      2  CA         5.4510   53.9330   12.9540 C.3    11  GLU11       0.1699
      3  C          4.6150   54.9990   12.2300 C.2    11  GLU11       0.2593
      4  O          4.2040   55.9880   12.8290 O.2    11  GLU11      -0.2718
      5  CB         4.7480   52.5690   12.9460 C.3    11  GLU11       0.0402
      6  CG         5.6550   51.3740   13.2540 C.3    11  GLU11       0.1161
      7  CD         6.6710   51.0860   12.1540 C.2    11  GLU11       0.3649
      8  OE1        6.4120   50.1920   11.3190 O.co2  11  GLU11      -0.2457
      9  OE2        7.7260   51.7540   12.1200 O.co2  11  GLU11      -0.2457
     10  N          4.3640   54.7750   10.9430 N.am   12  GLY12      -0.1942
     11  CA         3.8840   55.8250   10.0440 C.3    12  GLY12       0.2014
     12  C          2.4740   56.3550   10.2380 C.2    12  GLY12       0.2639
     13  O          2.1260   57.3920    9.6730 O.2    12  GLY12      -0.2714
     14  N          1.6550   55.6600   11.0220 N.am   13  CYS13      -0.1953
     15  CA         0.2610   56.0810   11.2020 C.3    13  CYS13       0.1843
     16  C         -0.1530   56.2850   12.6610 C.2    13  CYS13       0.2625
     17  O         -1.3390   56.4390   12.9510 O.2    13  CYS13      -0.2714
     18  CB        -0.6850   55.0870   10.5210 C.3    13  CYS13       0.0997
     19  SG        -0.5060   55.0160    8.7340 S.3    13  CYS13      -0.0797
     20  N          0.8260   56.3170   13.5640 N.am   14  VAL14      -0.1963
     21  CA         0.5560   56.3170   15.0100 C.3    14  VAL14       0.1727
     22  C          0.0570   57.6490   15.5810 C.2    14  VAL14       0.2617
     23  O         -0.6670   57.6660   16.5820 O.2    14  VAL14      -0.2715
     24  CB         1.7740   55.8030   15.8330 C.3    14  VAL14       0.0290
     25  CG1        2.1410   54.3810   15.4130 C.3    14  VAL14       0.0023
     26  CG2        2.9670   56.7310   15.6840 C.3    14  VAL14       0.0023
     27  N          0.4520   58.7580   14.9560 N.am   15  GLY15      -0.1940
     28  CA         0.0090   60.0840   15.3930 C.3    15  GLY15       0.2014
     29  C          1.0450   60.9230   16.1220 C.2    15  GLY15       0.2639
     30  O          0.6980   61.7150   17.0040 O.2    15  GLY15      -0.2714
     31  N          2.3120   60.7620   15.7410 N.am   16  LYS16      -0.1963
     32  CA         3.4170   61.5360   16.3140 C.3    16  LYS16       0.1728
     33  C          3.1960   63.0430   16.1480 C.2    16  LYS16       0.2617
     34  O          3.1800   63.7930   17.1280 O.2    16  LYS16      -0.2715
     35  CB         4.7430   61.1410   15.6510 C.3    16  LYS16       0.0311
     36  CG         5.1640   59.6910   15.8730 C.3    16  LYS16       0.0038
     37  CD         6.4980   59.3910   15.1870 C.3    16  LYS16       0.0206
     38  CE         6.4000   59.4020   13.6590 C.3    16  LYS16       0.1093
     39  NZ         5.4920   58.3470   13.1440 N.3    16  LYS16      -0.1314
     40  N          3.0240   63.4690   14.8980 N.am   17  THR17      -0.1937
     41  CA         2.7780   64.8760   14.5710 C.3    17  THR17       0.2028
     42  C          1.5130   65.3910   15.2530 C.2    17  THR17       0.2642
     43  O          1.4930   66.5150   15.7690 O.2    17  THR17      -0.2714
     44  CB         2.6940   65.0850   13.0450 C.3    17  THR17       0.1808
     45  OG1        3.8960   64.5930   12.4420 O.3    17  THR17      -0.2208
     46  CG2        2.5260   66.5680   12.6860 C.3    17  THR17       0.0379
     47  N          0.4720   64.5620   15.2690 N.am   18  SER18      -0.1949
     48  CA        -0.7860   64.9180   15.9270 C.3    18  SER18       0.1924
     49  C         -0.6150   65.2160   17.4220 C.2    18  SER18       0.2314
     50  O         -1.2570   66.1230   17.9510 O.2    18  SER18      -0.2863
     51  CB        -1.8430   63.8320   15.7160 C.3    18  SER18       0.2116
     52  OG        -2.1980   63.7200   14.3460 O.3    18  SER18      -0.2180
     53  N         -5.6490   69.9350   15.3290 N.3    28  PHE28      -0.1227
     54  CA        -5.6780   68.5420   14.9000 C.3    28  PHE28       0.1736
     55  C         -6.1480   68.4580   13.4550 C.2    28  PHE28       0.2595
     56  O         -7.0260   69.2190   13.0300 O.2    28  PHE28      -0.2718
     57  CB        -6.5990   67.7150   15.8130 C.3    28  PHE28       0.0547
     58  CG        -6.7040   66.2570   15.4320 C.ar   28  PHE28      -0.0202
     59  CD1       -5.7360   65.3410   15.8470 C.ar   28  PHE28      -0.0042
     60  CD2       -7.7830   65.7940   14.6770 C.ar   28  PHE28      -0.0042
     61  CE1       -5.8320   63.9910   15.5000 C.ar   28  PHE28      -0.0003
     62  CE2       -7.8900   64.4470   14.3260 C.ar   28  PHE28      -0.0003
     63  CZ        -6.9110   63.5410   14.7420 C.ar   28  PHE28      -0.0000
     64  N         -5.5550   67.5260   12.7120 N.am   29  ASN29      -0.1960
     65  CA        -5.9410   67.2470   11.3340 C.3    29  ASN29       0.1819
     66  C         -6.3280   65.7880   11.1700 C.2    29  ASN29       0.2621
     67  O         -5.6080   64.9030   11.6300 O.2    29  ASN29      -0.2715
     68  CB        -4.7890   67.5590   10.3770 C.3    29  ASN29       0.1195
     69  CG        -4.3950   69.0200   10.3900 C.2    29  ASN29       0.2630
     70  OD1       -5.2280   69.9040   10.1840 O.2    29  ASN29      -0.2716
     71  ND2       -3.1140   69.2810   10.6180 N.am   29  ASN29      -0.0877
     72  N         -7.4630   65.5390   10.5170 N.am   30  ASP30      -0.1957
     73  CA        -7.8280   64.1800   10.1130 C.3    30  ASP30       0.1840
     74  C         -6.8830   63.6730    9.0220 C.2    30  ASP30       0.2622
     75  O         -6.6500   62.4740    8.9030 O.2    30  ASP30      -0.2715
     76  CB        -9.2750   64.1210    9.6100 C.3    30  ASP30       0.1450
     77  CG       -10.2860   63.9480   10.7310 C.2    30  ASP30       0.3671
     78  OD1       -9.9860   63.2570   11.7350 O.co2  30  ASP30      -0.2456
     79  OD2      -11.4040   64.4900   10.5940 O.co2  30  ASP30      -0.2456
     80  N         -6.3520   64.5960    8.2250 N.am   31  LYS31      -0.1963
     81  CA        -5.4190   64.2480    7.1620 C.3    31  LYS31       0.1728
     82  C         -4.0770   63.8390    7.7580 C.2    31  LYS31       0.2616
     83  O         -3.6160   64.4360    8.7360 O.2    31  LYS31      -0.2715
     84  CB        -5.2240   65.4290    6.2060 C.3    31  LYS31       0.0311
     85  CG        -4.4520   65.0730    4.9410 C.3    31  LYS31       0.0038
     86  CD        -4.2110   66.2770    4.0480 C.3    31  LYS31       0.0206
     87  CE        -3.5540   65.8410    2.7440 C.3    31  LYS31       0.1093
     88  NZ        -3.1410   67.0050    1.9140 N.3    31  LYS31      -0.1314
     89  N         -3.4750   62.8050    7.1800 N.am   32  HIS32      -0.1959
     90  CA        -2.0850   62.4740    7.4540 C.3    32  HIS32       0.1787
     91  C         -1.2080   63.3960    6.6090 C.2    32  HIS32       0.2620
     92  O         -1.1460   63.2590    5.3830 O.2    32  HIS32      -0.2715
     93  CB        -1.8060   60.9980    7.1460 C.3    32  HIS32       0.0785
     94  CG        -0.3540   60.6820    6.9560 C.ar   32  HIS32       0.0821
     95  ND1        0.5590   60.7220    7.9870 N.ar   32  HIS32      -0.2267
     96  CD2        0.3430   60.3250    5.8500 C.ar   32  HIS32       0.1154
     97  CE1        1.7550   60.4010    7.5260 C.ar   32  HIS32       0.1986
     98  NE2        1.6520   60.1580    6.2320 N.ar   32  HIS32      -0.2212
     99  N         -0.5530   64.3510    7.2640 N.am   33  ILE33      -0.1963
    100  CA         0.3330   65.2870    6.5720 C.3    33  ILE33       0.1727
    101  C          1.6940   64.6360    6.3290 C.2    33  ILE33       0.2617
    102  O          2.3560   64.1980    7.2710 O.2    33  ILE33      -0.2715
    103  CB         0.5170   66.6240    7.3550 C.3    33  ILE33       0.0290
    104  CG1       -0.8360   67.2630    7.7160 C.3    33  ILE33       0.0022
    105  CG2        1.4200   67.5930    6.5840 C.3    33  ILE33       0.0023
    106  CD1       -1.7400   67.5880    6.5310 C.3    33  ILE33       0.0001
    107  N          2.0910   64.5640    5.0600 N.am   34  THR34      -0.1937
    108  CA         3.4070   64.0490    4.6850 C.3    34  THR34       0.2028
    109  C          4.4240   65.1920    4.6860 C.2    34  THR34       0.2642
    110  O          4.3360   66.1290    3.8850 O.2    34  THR34      -0.2714
    111  CB         3.3710   63.3100    3.3240 C.3    34  THR34       0.1808
    112  OG1        2.4740   62.1940    3.4150 O.3    34  THR34      -0.2208
    113  CG2        4.7580   62.8000    2.9410 C.3    34  THR34       0.0379
    114  N          5.3740   65.1050    5.6110 N.am   35  THR35      -0.1950
    115  CA         6.3770   66.1440    5.8210 C.3    35  THR35       0.1897
    116  C          7.7400   65.7160    5.2940 C.2    35  THR35       0.2313
    117  O          8.0130   64.5240    5.1480 O.2    35  THR35      -0.2863
    118  CB         6.5280   66.4740    7.3260 C.3    35  THR35       0.1794
    119  OG1        6.7830   65.2650    8.0540 O.3    35  THR35      -0.2208
    120  CG2        5.2640   67.1320    7.8680 C.3    35  THR35       0.0378
    121  N          9.6170   64.1550   13.1700 N.3    59  THR59      -0.1203
    122  CA        10.0020   63.7990   11.8040 C.3    59  THR59       0.1994
    123  C          9.1990   62.5820   11.3480 C.2    59  THR59       0.2618
    124  O          8.7250   61.8030   12.1790 O.2    59  THR59      -0.2717
    125  CB        11.5300   63.5250   11.6840 C.3    59  THR59       0.1784
    126  OG1       11.9410   63.6600   10.3160 O.3    59  THR59      -0.2211
    127  CG2       11.9010   62.1300   12.2030 C.3    59  THR59       0.0376
    128  N          9.0480   62.4140   10.0330 N.am   60  ALA60      -0.1965
    129  CA         8.3410   61.2470    9.4940 C.3    60  ALA60       0.1728
    130  C          9.0210   59.9460    9.9200 C.2    60  ALA60       0.2616
    131  O         10.2470   59.8050    9.8220 O.2    60  ALA60      -0.2715
    132  CB         8.2260   61.3320    7.9740 C.3    60  ALA60       0.0334
    133  N          8.2170   59.0130   10.4160 N.am   61  GLY61      -0.1955
    134  CA         8.7210   57.7480   10.9420 C.3    61  GLY61       0.1869
    135  C          8.7220   56.6320    9.9170 C.2    61  GLY61       0.2309
    136  O          8.5770   56.8770    8.7100 O.2    61  GLY61      -0.2863
    137  N         10.6890   56.4890    6.5290 N.3    64  ARG64      -0.1245
    138  CA        11.2530   57.8240    6.3180 C.3    64  ARG64       0.1563
    139  C         12.3280   58.2100    7.3370 C.2    64  ARG64       0.2260
    140  O         13.0400   59.1930    7.1360 O.2    64  ARG64      -0.2867
    141  CB        10.1440   58.8790    6.2910 C.3    64  ARG64       0.0307
    142  CG         9.0620   58.6090    5.2560 C.3    64  ARG64       0.0489
    143  CD         9.1900   59.4780    4.0110 C.3    64  ARG64       0.2205
    144  NE        10.4930   59.4160    3.3470 N.pl3  64  ARG64      -0.0865
    145  CZ        11.3570   60.4290    3.2870 C.cat  64  ARG64       0.5346
    146  NH1       11.0720   61.5920    3.8630 N.pl3  64  ARG64       0.1354
    147  NH2       12.5110   60.2790    2.6470 N.pl3  64  ARG64       0.1354
    148  N         -1.4180   55.8090   21.7690 N.3   116  ASN116     -0.1225
    149  CA        -2.2650   56.8560   21.2090 C.3   116  ASN116      0.1785
    150  C         -3.5340   56.3000   20.5480 C.2   116  ASN116      0.2597
    151  O         -3.6410   55.0940   20.3050 O.2   116  ASN116     -0.2718
    152  CB        -1.4570   57.7080   20.2200 C.3   116  ASN116      0.1169
    153  CG        -2.1920   58.9640   19.7800 C.2   116  ASN116      0.2627
    154  OD1       -2.8010   59.6620   20.5930 O.2   116  ASN116     -0.2716
    155  ND2       -2.1270   59.2630   18.4830 N.am  116  ASN116     -0.0877
    156  N         -4.4830   57.1980   20.2680 N.am  117  LYS117     -0.1980
    157  CA        -5.7700   56.8780   19.6300 C.3   117  LYS117      0.1596
    158  C         -6.7260   56.1260   20.5640 C.2   117  LYS117      0.2287
    159  O         -7.4670   55.2420   20.1240 O.2   117  LYS117     -0.2864
    160  CB        -5.5840   56.1170   18.2990 C.3   117  LYS117      0.0298
    161  CG        -4.6940   56.8140   17.2790 C.3   117  LYS117      0.0038
    162  CD        -4.8560   56.2010   15.8940 C.3   117  LYS117      0.0206
    163  CE        -3.8260   56.7600   14.9210 C.3   117  LYS117      0.1093
    164  NZ        -4.0510   56.2780   13.5330 N.3   117  LYS117     -0.1314
    165  N         -9.3570   57.0980   21.7640 N.3   119  ASP119     -0.1225
    166  CA       -10.7250   57.3710   21.3210 C.3   119  ASP119      0.1805
    167  C        -11.2620   56.2340   20.4450 C.2   119  ASP119      0.2597
    168  O        -12.4740   56.1290   20.2320 O.2   119  ASP119     -0.2718
    169  CB       -10.7930   58.7000   20.5640 C.3   119  ASP119      0.1424
    170  CG        -9.8700   58.7330   19.3600 C.2   119  ASP119      0.3668
    171  OD1       -8.6360   58.7650   19.5600 O.co2 119  ASP119     -0.2456
    172  OD2      -10.3770   58.7270   18.2190 O.co2 119  ASP119     -0.2456
    173  N        -10.3530   55.3970   19.9460 N.am  120  LEU120     -0.1979
    174  CA       -10.6960   54.2260   19.1380 C.3   120  LEU120      0.1596
    175  C        -10.6260   52.9300   19.9520 C.2   120  LEU120      0.2287
    176  O        -10.2160   51.8860   19.4380 O.2   120  LEU120     -0.2864
    177  CB        -9.7730   54.1300   17.9130 C.3   120  LEU120      0.0297
    178  CG        -9.6550   55.3150   16.9460 C.3   120  LEU120      0.0022
    179  CD1       -8.6170   55.0060   15.8690 C.3   120  LEU120      0.0001
    180  CD2      -10.9980   55.6650   16.3120 C.3   120  LEU120      0.0001
    181  N         -5.1310   60.5610   23.4520 N.3   146  SER146     -0.1202
    182  CA        -5.8590   60.7760   22.2110 C.3   146  SER146      0.2020
    183  C         -5.5630   62.1840   21.7180 C.2   146  SER146      0.2619
    184  O         -5.9640   63.1650   22.3440 O.2   146  SER146     -0.2717
    185  CB        -7.3670   60.5910   22.3900 C.3   146  SER146      0.2103
    186  OG        -8.0420   60.9310   21.1860 O.3   146  SER146     -0.2182
    187  N         -4.8410   62.2780   20.6060 N.am  147  ALA147     -0.1965
    188  CA        -4.5930   63.5620   19.9580 C.3   147  ALA147      0.1728
    189  C         -5.9020   64.1720   19.4540 C.2   147  ALA147      0.2616
    190  O         -6.0970   65.3870   19.5330 O.2   147  ALA147     -0.2715
    191  CB        -3.6020   63.4000   18.8200 C.3   147  ALA147      0.0334
    192  N         -6.7910   63.3130   18.9570 N.am  148  LYS148     -0.1977
    193  CA        -8.0810   63.7340   18.4140 C.3   148  LYS148      0.1596
    194  C         -8.9630   64.4180   19.4620 C.2   148  LYS148      0.2287
    195  O         -9.5370   65.4760   19.1990 O.2   148  LYS148     -0.2864
    196  CB        -8.8140   62.5450   17.7740 C.3   148  LYS148      0.0298
    197  CG       -10.1570   62.9180   17.1460 C.3   148  LYS148      0.0038
    198  CD       -10.4860   62.0670   15.9370 C.3   148  LYS148      0.0206
    199  CE       -11.5670   62.7460   15.1060 C.3   148  LYS148      0.1093
    200  NZ       -11.6310   62.2250   13.7120 N.3   148  LYS148     -0.1314
@<TRIPOS>BOND
     1    88    87    1
     2   147   145    1
     3    87    86    1
     4   113   111    1
     5   145   144    2
     6   145   146    1
     7   111   112    1
     8   111   108    1
     9   144   143    1
    10   110   109    2
    11   143   142    1
    12    86    85    1
    13   108   109    1
    14   108   107    1
    15   109   114   am
    16    85    84    1
    17   107   101   am
    18   117   116    2
    19   142   141    1
    20   116   115    1
    21    92    91    2
    22   114   115    1
    23   115   118    1
    24    96    98   ar
    25    96    94   ar
    26    84    81    1
    27    98    97   ar
    28   141   138    1
    29   138   137    1
    30   138   139    1
    31   101   100    1
    32   101   102    2
    33   106   104    1
    34   100    99    1
    35   100   103    1
    36   105   103    1
    37    91    99   am
    38    91    90    1
    39    94    93    1
    40    94    95   ar
    41   140   139    2
    42    93    90    1
    43    81    82    1
    44    81    80    1
    45    89    90    1
    46    89    82   am
    47   118   120    1
    48   118   119    1
    49   103   104    1
    50    97    95   ar
    51    82    83    2
    52   132   129    1
    53    80    74   am
    54   136   135    2
    55    19    18    1
    56    75    74    2
    57    74    73    1
    58   129   130    1
    59   129   128    1
    60    76    73    1
    61    76    77    1
    62    13    12    2
    63   131   130    2
    64   135   134    1
    65   130   133   am
    66   128   123   am
    67    11    12    1
    68    11    10    1
    69    73    72    1
    70    70    69    2
    71    12    14   am
    72   126   125    1
    73    68    69    1
    74    68    65    1
    75    69    71   am
    76   133   134    1
    77    72    66   am
    78    18    15    1
    79    79    77   ar
    80    77    78   ar
    81    10     3   am
    82    14    15    1
    83    66    65    1
    84    66    67    2
    85    15    16    1
    86     8     7   ar
    87    65    64    1
    88   123   122    1
    89   123   124    2
    90   125   122    1
    91   125   127    1
    92   122   121    1
    93     9     7   ar
    94     7     6    1
    95     3     4    2
    96     3     2    1
    97    45    44    1
    98    16    17    2
    99    16    20   am
   100    46    44    1
   101    64    55   am
   102     5     2    1
   103     5     6    1
   104     2     1    1
   105    56    55    2
   106    44    41    1
   107    39    38    1
   108    55    54    1
   109   164   163    1
   110    20    21    1
   111    38    37    1
   112   200   199    1
   113    62    60   ar
   114    62    63   ar
   115    52    51    1
   116    41    40    1
   117    41    42    1
   118    60    58   ar
   119    63    61   ar
   120    40    33   am
   121    54    53    1
   122    54    57    1
   123   163   162    1
   124    27    28    1
   125    27    22   am
   126    21    22    1
   127    21    24    1
   128   199   198    1
   129    37    36    1
   130    42    47   am
   131    42    43    2
   132    47    48    1
   133    28    29    1
   134    25    24    1
   135    58    57    1
   136    58    59   ar
   137    61    59   ar
   138    22    23    2
   139    35    36    1
   140    35    32    1
   141    26    24    1
   142    51    48    1
   143    31    29   am
   144    31    32    1
   145   179   178    1
   146   162   161    1
   147    48    49    1
   148   198   197    1
   149    29    30    2
   150    33    32    1
   151    33    34    2
   152   180   178    1
   153   178   177    1
   154   197   196    1
   155   161   160    1
   156    49    50    2
   157   196   193    1
   158   177   174    1
   159   172   170   ar
   160   160   157    1
   161   193   192    1
   162   193   194    1
   163   155   153   am
   164   191   188    1
   165   192   189   am
   166   174   173    1
   167   174   175    1
   168   195   194    2
   169   170   171   ar
   170   170   169    1
   171   176   175    2
   172   189   190    2
   173   189   188    1
   174   157   156    1
   175   157   158    1
   176   153   152    1
   177   153   154    2
   178   173   167   am
   179   188   187    1
   180   159   158    2
   181   152   149    1
   182   168   167    2
   183   156   150   am
   184   151   150    2
   185   167   166    1
   186   150   149    1
   187   169   166    1
   188   187   183   am
   189   186   185    1
   190   149   148    1
   191   166   165    1
   192   183   182    1
   193   183   184    2
   194   182   185    1
   195   182   181    1
