@<TRIPOS>MOLECULE
tmp/1z0fA00.pdb
 128 122 0 0 0
SMALL
GASTEIGER

@<TRIPOS>ATOM
      1  N          3.9110    5.3160   -1.8200 N.3    14  MET14      -0.1230
      2  CA         4.2650    6.7230   -1.6300 C.3    14  MET14       0.1702
      3  C          3.4080    7.3490   -0.5320 C.2    14  MET14       0.2593
      4  O          2.1850    7.1540   -0.5010 O.2    14  MET14      -0.2718
      5  CB         4.0750    7.5070   -2.9380 C.3    14  MET14       0.0401
      6  CG         4.9330    7.0300   -4.1190 C.3    14  MET14       0.0596
      7  SD         4.4460    7.7710   -5.7030 S.3    14  MET14      -0.1393
      8  CE         5.1150    9.4250   -5.5430 C.3    14  MET14       0.0692
      9  N          4.0550    8.0840    0.3680 N.am   15  GLY15      -0.1942
     10  CA         3.3600    8.8040    1.4380 C.3    15  GLY15       0.2014
     11  C          2.9770    8.0320    2.6990 C.2    15  GLY15       0.2639
     12  O          2.2580    8.5670    3.5510 O.2    15  GLY15      -0.2714
     13  N          3.4450    6.7900    2.8370 N.am   16  VAL16      -0.1963
     14  CA         3.1120    5.9810    4.0260 C.3    16  VAL16       0.1727
     15  C          3.9240    6.3740    5.2780 C.2    16  VAL16       0.2617
     16  O          3.5490    6.0280    6.4090 O.2    16  VAL16      -0.2715
     17  CB         3.2280    4.4420    3.7710 C.3    16  VAL16       0.0290
     18  CG1        2.2710    3.9910    2.6730 C.3    16  VAL16       0.0023
     19  CG2        4.6610    4.0360    3.4360 C.3    16  VAL16       0.0023
     20  N          5.0350    7.0810    5.0700 N.am   17  GLY17      -0.1940
     21  CA         5.8740    7.5480    6.1790 C.3    17  GLY17       0.2014
     22  C          7.2580    6.9250    6.2800 C.2    17  GLY17       0.2639
     23  O          7.8550    6.9170    7.3610 O.2    17  GLY17      -0.2714
     24  N          7.7810    6.4200    5.1590 N.am   18  LYS18      -0.1963
     25  CA         9.1040    5.7640    5.1470 C.3    18  LYS18       0.1728
     26  C         10.2410    6.7250    5.5320 C.2    18  LYS18       0.2617
     27  O         11.1020    6.3800    6.3410 O.2    18  LYS18      -0.2715
     28  CB         9.3950    5.1010    3.7900 C.3    18  LYS18       0.0311
     29  CG         8.3040    4.1440    3.2860 C.3    18  LYS18       0.0038
     30  CD         8.6520    3.4920    1.9400 C.3    18  LYS18       0.0206
     31  CE         8.7260    4.4900    0.7720 C.3    18  LYS18       0.1093
     32  NZ         7.4020    5.0840    0.4210 N.3    18  LYS18      -0.1314
     33  N         10.2330    7.9290    4.9630 N.am   19  SER19      -0.1936
     34  CA        11.2450    8.9470    5.2770 C.3    19  SER19       0.2055
     35  C         11.1620    9.4050    6.7330 C.2    19  SER19       0.2643
     36  O         12.1850    9.6070    7.3810 O.2    19  SER19      -0.2714
     37  CB        11.1190   10.1520    4.3410 C.3    19  SER19       0.2130
     38  OG        11.5820    9.8330    3.0400 O.3    19  SER19      -0.2179
     39  N          9.9390    9.5550    7.2370 N.am   20  CYS20      -0.1967
     40  CA         9.7170    9.9560    8.6220 C.3    20  CYS20       0.1712
     41  C         10.1240    8.8960    9.6440 C.2    20  CYS20       0.2296
     42  O         10.6990    9.2270   10.6820 O.2    20  CYS20      -0.2864
     43  CB         8.2700   10.4030    8.8320 C.3    20  CYS20       0.0983
     44  SG         7.9340   12.0250    8.1270 S.3    20  CYS20      -0.0798
     45  N         10.6710   14.2650   14.9630 N.3    30  PHE30      -0.1241
     46  CA         9.7390   14.4510   13.8540 C.3    30  PHE30       0.1605
     47  C          9.7430   15.9290   13.4880 C.2    30  PHE30       0.2264
     48  O          9.6120   16.7900   14.3640 O.2    30  PHE30      -0.2867
     49  CB         8.3280   13.9960   14.2420 C.3    30  PHE30       0.0534
     50  CG         7.3230   14.0670   13.1150 C.ar   30  PHE30      -0.0203
     51  CD1        7.2660   13.0650   12.1450 C.ar   30  PHE30      -0.0042
     52  CD2        6.4210   15.1230   13.0350 C.ar   30  PHE30      -0.0042
     53  CE1        6.3280   13.1220   11.1080 C.ar   30  PHE30      -0.0003
     54  CE2        5.4820   15.1890   12.0000 C.ar   30  PHE30      -0.0003
     55  CZ         5.4380   14.1850   11.0360 C.ar   30  PHE30      -0.0000
     56  N         12.1540   17.2450    0.1750 N.3    38  ILE38      -0.1231
     57  CA        11.7890   15.9720   -0.4550 C.3    38  ILE38       0.1692
     58  C         11.5340   14.8370    0.5500 C.2    38  ILE38       0.2592
     59  O         10.5690   14.0740    0.3960 O.2    38  ILE38      -0.2718
     60  CB        12.8120   15.5520   -1.5530 C.3    38  ILE38       0.0266
     61  CG1       12.5480   16.3560   -2.8350 C.3    38  ILE38       0.0019
     62  CG2       12.7410   14.0390   -1.8350 C.3    38  ILE38       0.0020
     63  CD1       13.5160   16.0890   -3.9790 C.3    38  ILE38       0.0001
     64  N         12.3790   14.7370    1.5740 N.am   39  GLY39      -0.1957
     65  CA        12.2720   13.6540    2.5540 C.3    39  GLY39       0.1869
     66  C         13.5050   12.7700    2.5150 C.2    39  GLY39       0.2309
     67  O         13.8880   12.2740    1.4470 O.2    39  GLY39      -0.2863
     68  N         15.6900    4.3640    2.1510 N.3    60  ASP60      -0.1239
     69  CA        14.4180    4.5600    1.4630 C.3    60  ASP60       0.1674
     70  C         14.7270    4.3860   -0.0210 C.2    60  ASP60       0.2266
     71  O         15.0570    5.3340   -0.7280 O.2    60  ASP60      -0.2867
     72  CB        13.8340    5.9450    1.7740 C.3    60  ASP60       0.1410
     73  CG        12.4840    6.1970    1.1030 C.2    60  ASP60       0.3668
     74  OD1       12.0110    5.3470    0.3110 O.co2  60  ASP60      -0.2456
     75  OD2       11.8880    7.2700    1.3680 O.co2  60  ASP60      -0.2456
     76  N          2.0500    2.2190    9.9030 N.3   118  ASN118     -0.1225
     77  CA         2.4180    3.5490   10.3680 C.3   118  ASN118      0.1785
     78  C          1.2160    4.4920   10.5130 C.2   118  ASN118      0.2597
     79  O          0.1090    4.1740   10.0700 O.2   118  ASN118     -0.2718
     80  CB         3.4750    4.1560    9.4380 C.3   118  ASN118      0.1169
     81  CG         4.1690    5.3630   10.0500 C.2   118  ASN118      0.2627
     82  OD1        4.5290    5.3540   11.2310 O.2   118  ASN118     -0.2716
     83  ND2        4.3540    6.4100    9.2490 N.am  118  ASN118     -0.0877
     84  N          1.4520    5.6490   11.1370 N.am  119  LYS119     -0.1980
     85  CA         0.4180    6.6530   11.4380 C.3   119  LYS119      0.1596
     86  C         -0.6310    6.1450   12.4390 C.2   119  LYS119      0.2287
     87  O         -1.8180    6.4590   12.3210 O.2   119  LYS119     -0.2864
     88  CB        -0.2410    7.2080   10.1540 C.3   119  LYS119      0.0298
     89  CG         0.7530    7.6720    9.0800 C.3   119  LYS119      0.0038
     90  CD         0.0820    8.4660    7.9610 C.3   119  LYS119      0.0206
     91  CE         1.0610    8.7350    6.8130 C.3   119  LYS119      0.1093
     92  NZ         0.5760    9.7900    5.8860 N.3   119  LYS119     -0.1314
     93  N         -1.0110    7.1670   15.3310 N.3   121  ASP121     -0.1225
     94  CA        -1.4800    8.3330   16.0870 C.3   121  ASP121      0.1805
     95  C         -2.8310    8.8600   15.5880 C.2   121  ASP121      0.2597
     96  O         -3.5760    9.4910   16.3430 O.2   121  ASP121     -0.2718
     97  CB        -0.4260    9.4550   16.0680 C.3   121  ASP121      0.1424
     98  CG        -0.0290    9.8710   14.6560 C.2   121  ASP121      0.3668
     99  OD1       -0.3280   11.0230   14.2730 O.co2 121  ASP121     -0.2456
    100  OD2        0.5820    9.0510   13.9300 O.co2 121  ASP121     -0.2456
    101  N         -3.1390    8.5940   14.3200 N.am  122  LEU122     -0.1979
    102  CA        -4.3850    9.0550   13.7090 C.3   122  LEU122      0.1596
    103  C         -5.5080    8.0400   13.9290 C.2   122  LEU122      0.2287
    104  O         -6.0770    7.5010   12.9720 O.2   122  LEU122     -0.2864
    105  CB        -4.1830    9.3320   12.2130 C.3   122  LEU122      0.0297
    106  CG        -3.0420   10.2620   11.7820 C.3   122  LEU122      0.0022
    107  CD1       -2.8700   10.2120   10.2670 C.3   122  LEU122      0.0001
    108  CD2       -3.2720   11.6980   12.2680 C.3   122  LEU122      0.0001
    109  N          4.1260    4.8630   15.0950 N.3   148  SER148     -0.1202
    110  CA         3.8980    6.2560   14.7440 C.3   148  SER148      0.2020
    111  C          5.2210    7.0060   14.6350 C.2   148  SER148      0.2619
    112  O          5.8620    7.3070   15.6530 O.2   148  SER148     -0.2717
    113  CB         2.9810    6.9320   15.7740 C.3   148  SER148      0.2103
    114  OG         2.9530    8.3400   15.5920 O.3   148  SER148     -0.2182
    115  N          5.6170    7.3100   13.4000 N.am  149  ALA149     -0.1965
    116  CA         6.8190    8.1010   13.1330 C.3   149  ALA149      0.1728
    117  C          6.7220    9.4920   13.7450 C.2   149  ALA149      0.2616
    118  O          7.7430   10.1010   14.0740 O.2   149  ALA149     -0.2715
    119  CB         7.0660    8.2080   11.6440 C.3   149  ALA149      0.0334
    120  N          5.4920    9.9830   13.8910 N.am  150  LYS150     -0.1977
    121  CA         5.2380   11.3130   14.4340 C.3   150  LYS150      0.1596
    122  C          5.5150   11.3950   15.9340 C.2   150  LYS150      0.2287
    123  O          6.2180   12.2980   16.3940 O.2   150  LYS150     -0.2864
    124  CB         3.8050   11.7540   14.1390 C.3   150  LYS150      0.0298
    125  CG         3.5560   13.2220   14.4280 C.3   150  LYS150      0.0038
    126  CD         2.0820   13.5790   14.3750 C.3   150  LYS150      0.0206
    127  CE         1.8960   15.0670   14.6130 C.3   150  LYS150      0.1093
    128  NZ         0.4930   15.3930   14.9750 N.3   150  LYS150     -0.1314
@<TRIPOS>BOND
     1     7     8    1
     2     7     6    1
     3     6     5    1
     4    63    61    1
     5     5     2    1
     6    61    60    1
     7    62    60    1
     8     1     2    1
     9     2     3    1
    10    60    57    1
    11    71    70    2
    12     3     4    2
    13     3     9   am
    14    57    56    1
    15    57    58    1
    16    70    69    1
    17    74    73   ar
    18     9    10    1
    19    59    58    2
    20    32    31    1
    21    58    64   am
    22    31    30    1
    23    73    75   ar
    24    73    72    1
    25    10    11    1
    26    67    66    2
    27    69    72    1
    28    69    68    1
    29    64    65    1
    30    30    29    1
    31    66    65    1
    32    18    17    1
    33    11    13   am
    34    11    12    2
    35    13    14    1
    36    38    37    1
    37    29    28    1
    38    19    17    1
    39    17    14    1
    40    28    25    1
    41    14    15    1
    42    37    34    1
    43    33    34    1
    44    33    26   am
    45    20    15   am
    46    20    21    1
    47    25    24    1
    48    25    26    1
    49    24    22   am
    50    34    35    1
    51    15    16    2
    52    26    27    2
    53    92    91    1
    54    21    22    1
    55    22    23    2
    56    35    39   am
    57    35    36    2
    58    91    90    1
    59    39    40    1
    60    90    89    1
    61    44    43    1
    62    40    43    1
    63    40    41    1
    64    89    88    1
    65    83    81   am
    66    80    81    1
    67    80    77    1
    68    41    42    2
    69    76    77    1
    70    81    82    2
    71    79    78    2
    72    88    85    1
    73   107   106    1
    74    77    78    1
    75    78    84   am
    76    55    53   ar
    77    55    54   ar
    78    53    51   ar
    79    84    85    1
    80    85    86    1
    81   119   116    1
    82   106   105    1
    83   106   108    1
    84    54    52   ar
    85    51    50   ar
    86   105   102    1
    87    87    86    2
    88   104   103    2
    89    52    50   ar
    90    50    49    1
    91   116   115    1
    92   116   117    1
    93   115   111   am
    94    47    46    1
    95    47    48    2
    96   102   103    1
    97   102   101    1
    98   117   120   am
    99   117   118    2
   100    46    49    1
   101    46    45    1
   102   120   121    1
   103   100    98   ar
   104   124   125    1
   105   124   121    1
   106    99    98   ar
   107   101    95   am
   108   126   125    1
   109   126   127    1
   110   121   122    1
   111   127   128    1
   112   111   110    1
   113   111   112    2
   114    98    97    1
   115   110   109    1
   116   110   113    1
   117    93    94    1
   118    95    94    1
   119    95    96    2
   120   114   113    1
   121   122   123    2
   122    97    94    1
