@<TRIPOS>MOLECULE
tmp/1z0iA00.pdb
 156 151 0 0 0
SMALL
GASTEIGER

@<TRIPOS>ATOM
      1  N         10.5780   23.2860   10.6630 N.3    12  GLY12      -0.1210
      2  CA        11.2880   23.4200    9.3850 C.3    12  GLY12       0.1956
      3  C         10.3610   23.3790    8.1750 C.2    12  GLY12       0.2612
      4  O          9.3270   22.6930    8.1910 O.2    12  GLY12      -0.2717
      5  N         10.7480   24.1250    7.1370 N.am   13  CYS13      -0.1956
      6  CA        10.0220   24.2650    5.8590 C.3    13  CYS13       0.1843
      7  C          8.8640   25.2820    5.8440 C.2    13  CYS13       0.2625
      8  O          8.2660   25.5230    4.7820 O.2    13  CYS13      -0.2714
      9  CB         9.5460   22.9180    5.3060 C.3    13  CYS13       0.0997
     10  SG        10.7990   21.6540    5.2500 S.3    13  CYS13      -0.0797
     11  N          8.5430   25.8920    6.9830 N.am   14  VAL14      -0.1963
     12  CA         7.4060   26.8360    7.0150 C.3    14  VAL14       0.1727
     13  C          7.6570   28.2470    6.3980 C.2    14  VAL14       0.2617
     14  O          6.7000   28.9800    6.0800 O.2    14  VAL14      -0.2715
     15  CB         6.7830   26.9520    8.4360 C.3    14  VAL14       0.0290
     16  CG1        6.4000   25.5770    8.9760 C.3    14  VAL14       0.0023
     17  CG2        7.7110   27.6700    9.3990 C.3    14  VAL14       0.0023
     18  N          8.9240   28.6330    6.2450 N.am   15  GLY15      -0.1940
     19  CA         9.2700   29.9340    5.6600 C.3    15  GLY15       0.2014
     20  C          9.9530   30.9470    6.5680 C.2    15  GLY15       0.2639
     21  O         10.0410   32.1320    6.2230 O.2    15  GLY15      -0.2714
     22  N         10.4640   30.4920    7.7150 N.am   16  LYS16      -0.1963
     23  CA        11.1410   31.3860    8.6730 C.3    16  LYS16       0.1728
     24  C         12.2930   32.1700    8.0310 C.2    16  LYS16       0.2617
     25  O         12.3500   33.3970    8.1510 O.2    16  LYS16      -0.2715
     26  CB        11.6400   30.6110    9.9070 C.3    16  LYS16       0.0311
     27  CG        10.5510   29.8530   10.6820 C.3    16  LYS16       0.0038
     28  CD        11.0600   29.2640   12.0010 C.3    16  LYS16       0.0206
     29  CE        12.1030   28.1100   11.8300 C.3    16  LYS16       0.1093
     30  NZ        11.8540   27.2420   10.6560 N.3    16  LYS16      -0.1314
     31  N         13.2030   31.4760    7.3420 N.am   17  THR17      -0.1937
     32  CA        14.3480   32.1580    6.6920 C.3    17  THR17       0.2028
     33  C         13.9220   33.0320    5.5070 C.2    17  THR17       0.2642
     34  O         14.5150   34.0900    5.2770 O.2    17  THR17      -0.2714
     35  CB        15.4400   31.1690    6.2050 C.3    17  THR17       0.1808
     36  OG1       15.7470   30.2430    7.2490 O.3    17  THR17      -0.2208
     37  CG2       16.7190   31.9060    5.8000 C.3    17  THR17       0.0379
     38  N         12.8980   32.5960    4.7650 N.am   18  SER18      -0.1949
     39  CA        12.4100   33.3820    3.6220 C.3    18  SER18       0.1924
     40  C         11.8660   34.7180    4.0810 C.2    18  SER18       0.2314
     41  O         12.0800   35.7360    3.4080 O.2    18  SER18      -0.2863
     42  CB        11.3590   32.6320    2.8180 C.3    18  SER18       0.2116
     43  OG        11.8320   31.3430    2.4840 O.3    18  SER18      -0.2180
     44  N         13.7770   36.5990   -2.6960 N.3    28  PHE28      -0.1227
     45  CA        13.0310   35.3600   -2.5160 C.3    28  PHE28       0.1736
     46  C         13.3900   34.3650   -3.6090 C.2    28  PHE28       0.2595
     47  O         13.3870   34.7050   -4.8060 O.2    28  PHE28      -0.2718
     48  CB        11.5120   35.5820   -2.5150 C.3    28  PHE28       0.0547
     49  CG        10.7190   34.2940   -2.5280 C.ar   28  PHE28      -0.0202
     50  CD1       10.3960   33.6470   -1.3350 C.ar   28  PHE28      -0.0042
     51  CD2       10.3190   33.7150   -3.7360 C.ar   28  PHE28      -0.0042
     52  CE1        9.6900   32.4320   -1.3390 C.ar   28  PHE28      -0.0003
     53  CE2        9.6070   32.5050   -3.7550 C.ar   28  PHE28      -0.0003
     54  CZ         9.2910   31.8630   -2.5620 C.ar   28  PHE28      -0.0000
     55  N         13.6640   33.1300   -3.1890 N.am   29  ASN29      -0.1960
     56  CA        13.9880   32.0560   -4.1130 C.3    29  ASN29       0.1819
     57  C         13.3470   30.7160   -3.7070 C.2    29  ASN29       0.2621
     58  O         13.3880   30.3360   -2.5290 O.2    29  ASN29      -0.2715
     59  CB        15.5120   31.9270   -4.2030 C.3    29  ASN29       0.1195
     60  CG        15.9480   30.8550   -5.1640 C.2    29  ASN29       0.2630
     61  OD1       16.3210   31.1390   -6.3070 O.2    29  ASN29      -0.2716
     62  ND2       15.8970   29.6070   -4.7130 N.am   29  ASN29      -0.0877
     63  N         12.7450   30.0160   -4.6770 N.am   30  ASP30      -0.1971
     64  CA        12.1540   28.6890   -4.4270 C.3    30  ASP30       0.1709
     65  C         12.8420   27.5790   -5.2560 C.2    30  ASP30       0.2293
     66  O         12.2160   26.5790   -5.6050 O.2    30  ASP30      -0.2864
     67  CB        10.6200   28.7100   -4.6230 C.3    30  ASP30       0.1436
     68  CG         9.9180   27.4160   -4.1100 C.2    30  ASP30       0.3671
     69  OD1        8.8920   27.0100   -4.6920 O.co2  30  ASP30      -0.2456
     70  OD2       10.3880   26.7940   -3.1290 O.co2  30  ASP30      -0.2456
     71  N         16.3560   26.3790   -4.5770 N.3    32  HIS32      -0.1226
     72  CA        17.3930   25.6930   -3.8060 C.3    32  HIS32       0.1752
     73  C         17.2130   26.0230   -2.3130 C.2    32  HIS32       0.2596
     74  O         16.3470   26.8290   -1.9580 O.2    32  HIS32      -0.2718
     75  CB        18.7940   26.1150   -4.2780 C.3    32  HIS32       0.0759
     76  CG        19.0270   27.5970   -4.2430 C.ar   32  HIS32       0.0818
     77  ND1       19.1960   28.3530   -5.3860 N.ar   32  HIS32      -0.2268
     78  CD2       19.1010   28.4650   -3.2050 C.ar   32  HIS32       0.1154
     79  CE1       19.3670   29.6210   -5.0520 C.ar   32  HIS32       0.1986
     80  NE2       19.3110   29.7170   -3.7340 N.ar   32  HIS32      -0.2212
     81  N         18.0370   25.4230   -1.4530 N.am   33  ILE33      -0.1966
     82  CA        17.9780   25.6970   -0.0100 C.3    33  ILE33       0.1727
     83  C         18.4450   27.1320    0.2870 C.2    33  ILE33       0.2616
     84  O         19.4930   27.5630   -0.2070 O.2    33  ILE33      -0.2715
     85  CB        18.8160   24.6660    0.8210 C.3    33  ILE33       0.0290
     86  CG1       18.2680   23.2420    0.6550 C.3    33  ILE33       0.0022
     87  CG2       18.8620   25.0570    2.3180 C.3    33  ILE33       0.0023
     88  CD1       19.3030   22.1270    0.9030 C.3    33  ILE33       0.0001
     89  N         17.6510   27.8710    1.0640 N.am   34  THR34      -0.1951
     90  CA        18.0850   29.1700    1.5950 C.3    34  THR34       0.1897
     91  C         18.5800   29.0270    3.0330 C.2    34  THR34       0.2313
     92  O         17.9740   28.3280    3.8500 O.2    34  THR34      -0.2863
     93  CB        16.9650   30.2510    1.6150 C.3    34  THR34       0.1794
     94  OG1       16.0350   30.0540    0.5420 O.3    34  THR34      -0.2208
     95  CG2       17.5830   31.6150    1.4800 C.3    34  THR34       0.0378
     96  N         17.6010   34.0590   13.2940 N.3    58  ASP58      -0.1239
     97  CA        17.0830   32.8690   12.6140 C.3    58  ASP58       0.1674
     98  C         17.9890   31.6820   12.9330 C.2    58  ASP58       0.2266
     99  O         19.1740   31.8650   13.1960 O.2    58  ASP58      -0.2867
    100  CB        17.0090   33.1430   11.0910 C.3    58  ASP58       0.1410
    101  CG        16.4050   31.9930   10.2930 C.2    58  ASP58       0.3668
    102  OD1       16.9270   31.7090    9.1960 O.co2  58  ASP58      -0.2456
    103  OD2       15.4050   31.3840   10.7320 O.co2  58  ASP58      -0.2456
    104  N          2.0610   31.6310    7.2270 N.3   107  ASN107     -0.1225
    105  CA         2.7760   31.9620    5.9790 C.3   107  ASN107      0.1785
    106  C          2.3300   31.1310    4.7750 C.2   107  ASN107      0.2597
    107  O          1.7890   30.0270    4.9580 O.2   107  ASN107     -0.2718
    108  CB         4.3030   31.8580    6.1600 C.3   107  ASN107      0.1169
    109  CG         5.0780   32.4090    4.9560 C.2   107  ASN107      0.2627
    110  OD1        4.8500   33.5440    4.5100 O.2   107  ASN107     -0.2716
    111  ND2        6.0000   31.6130    4.4350 N.am  107  ASN107     -0.0877
    112  N          2.5910   31.6530    3.5600 N.am  108  LYS108     -0.1980
    113  CA         2.3600   30.9570    2.2760 C.3   108  LYS108      0.1596
    114  C          0.9310   31.1340    1.7550 C.2   108  LYS108      0.2287
    115  O          0.3420   30.1950    1.1850 O.2   108  LYS108     -0.2864
    116  CB         2.7160   29.4490    2.3560 C.3   108  LYS108      0.0298
    117  CG         4.2090   29.1550    2.5270 C.3   108  LYS108      0.0038
    118  CD         4.5620   27.6850    2.3390 C.3   108  LYS108      0.0206
    119  CE         6.0220   27.4480    2.7730 C.3   108  LYS108      0.1093
    120  NZ         6.5310   26.0850    2.5390 N.3   108  LYS108     -0.1314
    121  N         -0.3310   32.7070   -0.6890 N.3   110  ASP110     -0.1225
    122  CA        -0.4610   32.5720   -2.1430 C.3   110  ASP110      0.1805
    123  C         -0.9590   31.1720   -2.5300 C.2   110  ASP110      0.2597
    124  O         -1.4690   30.9730   -3.6420 O.2   110  ASP110     -0.2718
    125  CB         0.8860   32.8490   -2.8370 C.3   110  ASP110      0.1424
    126  CG         2.0300   31.9860   -2.2930 C.2   110  ASP110      0.3668
    127  OD1        2.4050   32.1120   -1.0900 O.co2 110  ASP110     -0.2456
    128  OD2        2.5640   31.1840   -3.0790 O.co2 110  ASP110     -0.2456
    129  N         -0.8040   30.2070   -1.6200 N.am  111  LEU111     -0.1979
    130  CA        -1.2140   28.8250   -1.8690 C.3   111  LEU111      0.1596
    131  C         -2.5590   28.4870   -1.2440 C.2   111  LEU111      0.2287
    132  O         -2.8120   27.3280   -0.9250 O.2   111  LEU111     -0.2864
    133  CB        -0.1400   27.8360   -1.3780 C.3   111  LEU111      0.0297
    134  CG         1.2720   27.8950   -1.9770 C.3   111  LEU111      0.0022
    135  CD1        2.2020   26.9570   -1.2340 C.3   111  LEU111      0.0001
    136  CD2        1.3040   27.6170   -3.5060 C.3   111  LEU111      0.0001
    137  N          2.7730   36.2040    2.8910 N.3   137  SER137     -0.1202
    138  CA         3.3260   35.4520    1.7730 C.3   137  SER137      0.2020
    139  C          4.6830   36.0630    1.4530 C.2   137  SER137      0.2619
    140  O          4.7550   37.2040    1.0040 O.2   137  SER137     -0.2717
    141  CB         2.4010   35.4980    0.5460 C.3   137  SER137      0.2103
    142  OG         3.0190   34.8820   -0.5780 O.3   137  SER137     -0.2182
    143  N          5.7500   35.3010    1.7100 N.am  138  ALA138     -0.1965
    144  CA         7.1230   35.7200    1.3870 C.3   138  ALA138      0.1728
    145  C          7.3910   35.7300   -0.1310 C.2   138  ALA138      0.2616
    146  O          8.2380   36.4780   -0.6200 O.2   138  ALA138     -0.2715
    147  CB         8.1230   34.8190    2.0950 C.3   138  ALA138      0.0334
    148  N          6.6610   34.8850   -0.8470 N.am  139  LYS139     -0.1977
    149  CA         6.7890   34.7050   -2.2830 C.3   139  LYS139      0.1596
    150  C          6.3180   35.9280   -3.0490 C.2   139  LYS139      0.2287
    151  O          6.9990   36.3580   -3.9870 O.2   139  LYS139     -0.2864
    152  CB         6.0190   33.4510   -2.7480 C.3   139  LYS139      0.0298
    153  CG         6.0960   33.2290   -4.2590 C.3   139  LYS139      0.0038
    154  CD         5.5180   31.8940   -4.7140 C.3   139  LYS139      0.0206
    155  CE         5.5390   31.8470   -6.2480 C.3   139  LYS139      0.1093
    156  NZ         4.8190   30.6660   -6.7950 N.3   139  LYS139     -0.1314
@<TRIPOS>BOND
     1   156   155    1
     2    61    60    2
     3   155   154    1
     4    66    65    2
     5    77    79   ar
     6    77    76   ar
     7    65    64    1
     8    60    62   am
     9    60    59    1
    10    79    80   ar
    11    47    46    2
    12   154   153    1
    13    69    68   ar
    14    63    64    1
    15    63    57   am
    16    67    64    1
    17    67    68    1
    18    71    72    1
    19    75    76    1
    20    75    72    1
    21   153   152    1
    22    76    78   ar
    23    59    56    1
    24    56    57    1
    25    56    55    1
    26    68    70   ar
    27   151   150    2
    28    72    73    1
    29    53    51   ar
    30    53    54   ar
    31    51    49   ar
    32    80    78   ar
    33    57    58    2
    34   124   123    2
    35    46    55   am
    36    46    45    1
    37   136   134    1
    38   128   126   ar
    39   150   149    1
    40   125   126    1
    41   125   122    1
    42   152   149    1
    43    44    45    1
    44    54    52   ar
    45   123   122    1
    46   123   129   am
    47    49    48    1
    48    49    50   ar
    49    45    48    1
    50    73    74    2
    51    73    81   am
    52   126   127   ar
    53   149   148    1
    54   122   121    1
    55   134   133    1
    56   134   135    1
    57   130   129    1
    58   130   133    1
    59   130   131    1
    60    81    82    1
    61    52    50   ar
    62   131   132    2
    63   148   145   am
    64   146   145    2
    65   142   141    1
    66    84    83    2
    67   145   144    1
    68    82    83    1
    69    82    85    1
    70    83    89   am
    71    94    93    1
    72   141   138    1
    73    86    85    1
    74    86    88    1
    75    85    87    1
    76   140   139    2
    77    89    90    1
    78   115   114    2
    79   144   143    1
    80   144   147    1
    81   139   143   am
    82   139   138    1
    83    95    93    1
    84    90    93    1
    85    90    91    1
    86   114   113    1
    87   138   137    1
    88   113   116    1
    89   113   112    1
    90   118   117    1
    91   118   119    1
    92   116   117    1
    93    43    42    1
    94   120   119    1
    95    42    39    1
    96    91    92    2
    97    41    40    2
    98   112   106   am
    99    39    40    1
   100    39    38    1
   101   111   109   am
   102   110   109    2
   103    38    33   am
   104   106   107    2
   105   106   105    1
   106     8     7    2
   107   109   108    1
   108    10     9    1
   109    34    33    2
   110     9     6    1
   111    33    32    1
   112    19    18    1
   113    19    20    1
   114    37    35    1
   115     7     6    1
   116     7    11   am
   117     6     5    1
   118   105   108    1
   119   105   104    1
   120    14    13    2
   121    35    32    1
   122    35    36    1
   123    21    20    2
   124    18    13   am
   125    13    12    1
   126    20    22   am
   127    32    31    1
   128    11    12    1
   129    12    15    1
   130     5     3   am
   131    31    24   am
   132    22    23    1
   133    24    25    2
   134    24    23    1
   135     3     4    2
   136     3     2    1
   137    15    16    1
   138    15    17    1
   139    23    26    1
   140   102   101   ar
   141     2     1    1
   142    26    27    1
   143   101   103   ar
   144   101   100    1
   145    30    29    1
   146    27    28    1
   147   100    97    1
   148    29    28    1
   149    97    98    1
   150    97    96    1
   151    98    99    2
