@<TRIPOS>MOLECULE
tmp/1z0jA00.pdb
 171 166 0 0 0
SMALL
GASTEIGER

@<TRIPOS>ATOM
      1  N         26.1620   -5.6450   18.3590 N.3    15  THR15      -0.1203
      2  CA        25.6850   -6.9150   17.8420 C.3    15  THR15       0.1994
      3  C         24.4000   -7.3330   18.5640 C.2    15  THR15       0.2618
      4  O         24.2770   -7.1380   19.7780 O.2    15  THR15      -0.2717
      5  CB        26.7820   -8.0310   17.9110 C.3    15  THR15       0.1784
      6  OG1       26.2260   -9.2670   17.4600 O.3    15  THR15      -0.2211
      7  CG2       27.3650   -8.2110   19.3270 C.3    15  THR15       0.0376
      8  N         23.4220   -7.8450   17.8170 N.am   16  GLY16      -0.1942
      9  CA        22.2340   -8.4190   18.4330 C.3    16  GLY16       0.2014
     10  C         21.0690   -7.4710   18.6470 C.2    16  GLY16       0.2639
     11  O         20.0140   -7.8950   19.0970 O.2    16  GLY16      -0.2714
     12  N         21.2320   -6.1910   18.3170 N.am   17  VAL17      -0.1963
     13  CA        20.1750   -5.2070   18.5970 C.3    17  VAL17       0.1727
     14  C         19.0260   -5.2170   17.5920 C.2    17  VAL17       0.2617
     15  O         17.9300   -4.7900   17.9320 O.2    17  VAL17      -0.2715
     16  CB        20.6980   -3.7600   18.7750 C.3    17  VAL17       0.0290
     17  CG1       21.6780   -3.6830   19.9450 C.3    17  VAL17       0.0023
     18  CG2       21.3660   -3.2560   17.4920 C.3    17  VAL17       0.0023
     19  N         19.2890   -5.6850   16.3700 N.am   18  GLY18      -0.1940
     20  CA        18.2810   -5.7760   15.3090 C.3    18  GLY18       0.2014
     21  C         18.4890   -4.8910   14.0790 C.2    18  GLY18       0.2639
     22  O         17.5280   -4.6390   13.3580 O.2    18  GLY18      -0.2714
     23  N         19.7200   -4.4430   13.8090 N.am   19  LYS19      -0.1963
     24  CA        20.0060   -3.6500   12.5950 C.3    19  LYS19       0.1728
     25  C         19.5550   -4.3550   11.3230 C.2    19  LYS19       0.2617
     26  O         18.7920   -3.8050   10.5100 O.2    19  LYS19      -0.2715
     27  CB        21.5040   -3.3760   12.4820 C.3    19  LYS19       0.0311
     28  CG        22.0620   -2.5170   13.6050 C.3    19  LYS19       0.0038
     29  CD        23.5720   -2.2780   13.4640 C.3    19  LYS19       0.0206
     30  CE        24.4010   -3.5480   13.5210 C.3    19  LYS19       0.1093
     31  NZ        24.3420   -4.2970   14.8310 N.3    19  LYS19      -0.1314
     32  N         19.9960   -5.5950   11.1400 N.am   20  SER20      -0.1936
     33  CA        19.6560   -6.3060    9.9240 C.3    20  SER20       0.2055
     34  C         18.1710   -6.6000    9.8670 C.2    20  SER20       0.2643
     35  O         17.5710   -6.5540    8.7920 O.2    20  SER20      -0.2714
     36  CB        20.4340   -7.6200    9.8020 C.3    20  SER20       0.2130
     37  OG        21.8330   -7.4120    9.8310 O.3    20  SER20      -0.2179
     38  N         17.5650   -6.9000   11.0140 N.am   21  SER21      -0.1949
     39  CA        16.1380   -7.1800   11.0490 C.3    21  SER21       0.1924
     40  C         15.3130   -5.9440   10.6710 C.2    21  SER21       0.2314
     41  O         14.2880   -6.0420    9.9970 O.2    21  SER21      -0.2863
     42  CB        15.7370   -7.7300   12.4120 C.3    21  SER21       0.2116
     43  OG        16.3220   -9.0070   12.6360 O.3    21  SER21      -0.2180
     44  N         10.5160  -11.0980    8.7270 N.3    31  PHE31      -0.1227
     45  CA        11.2640  -11.2240    9.9790 C.3    31  PHE31       0.1736
     46  C         11.7010  -12.6710   10.1760 C.2    31  PHE31       0.2595
     47  O         10.9190  -13.6010    9.9470 O.2    31  PHE31      -0.2718
     48  CB        10.4200  -10.7710   11.1750 C.3    31  PHE31       0.0547
     49  CG        11.1040  -10.9520   12.5110 C.ar   31  PHE31      -0.0202
     50  CD1       12.1140  -10.0820   12.9180 C.ar   31  PHE31      -0.0042
     51  CD2       10.7370  -11.9920   13.3630 C.ar   31  PHE31      -0.0042
     52  CE1       12.7420  -10.2460   14.1480 C.ar   31  PHE31      -0.0003
     53  CE2       11.3700  -12.1680   14.5940 C.ar   31  PHE31      -0.0003
     54  CZ        12.3700  -11.2950   14.9930 C.ar   31  PHE31      -0.0000
     55  N         12.9470  -12.8470   10.6050 N.am   32  ASP32      -0.1960
     56  CA        13.5040  -14.1650   10.8530 C.3    32  ASP32       0.1825
     57  C         14.0380  -14.2010   12.2860 C.2    32  ASP32       0.2464
     58  O         15.0160  -13.5210   12.5950 O.2    32  ASP32      -0.2730
     59  CB        14.6350  -14.4340    9.8560 C.3    32  ASP32       0.1450
     60  CG        15.1890  -15.8540    9.9390 C.2    32  ASP32       0.3671
     61  OD1       14.8310  -16.6160   10.8640 O.co2  32  ASP32      -0.2456
     62  OD2       16.0090  -16.2010    9.0600 O.co2  32  ASP32      -0.2456
     63  N         13.3960  -14.9980   13.1700 N.am   33  PRO33      -0.2727
     64  CA        13.8630  -15.1320   14.5610 C.3    33  PRO33       0.1402
     65  C         15.2790  -15.6860   14.6580 C.2    33  PRO33       0.2269
     66  O         15.9620  -15.4930   15.6700 O.2    33  PRO33      -0.2865
     67  CB        12.8710  -16.1260   15.1880 C.3    33  PRO33       0.0296
     68  CG        12.1500  -16.7530   14.0680 C.3    33  PRO33       0.0237
     69  CD        12.1850  -15.7980   12.9140 C.3    33  PRO33       0.0939
     70  N         17.8390  -15.1220   12.2720 N.3    35  ILE35      -0.1231
     71  CA        18.8280  -14.4220   11.4530 C.3    35  ILE35       0.1692
     72  C         20.1930  -14.4470   12.1510 C.2    35  ILE35       0.2592
     73  O         20.2780  -14.2670   13.3690 O.2    35  ILE35      -0.2718
     74  CB        18.3820  -12.9670   11.1270 C.3    35  ILE35       0.0266
     75  CG1       19.3730  -12.2920   10.1780 C.3    35  ILE35       0.0019
     76  CG2       18.1610  -12.1220   12.4070 C.3    35  ILE35       0.0020
     77  CD1       18.8760  -10.9540    9.6300 C.3    35  ILE35       0.0001
     78  N         21.2450  -14.6810   11.3700 N.am   36  ASN36      -0.1961
     79  CA        22.6080  -14.7960   11.8870 C.3    36  ASN36       0.1804
     80  C         23.2920  -13.4340   11.9970 C.2    36  ASN36       0.2463
     81  O         22.9630  -12.5180   11.2390 O.2    36  ASN36      -0.2730
     82  CB        23.4460  -15.7070   10.9730 C.3    36  ASN36       0.1195
     83  CG        22.9970  -17.1630   10.9980 C.2    36  ASN36       0.2630
     84  OD1       22.6350  -17.7000   12.0410 O.2    36  ASN36      -0.2716
     85  ND2       23.0420  -17.8130    9.8380 N.am   36  ASN36      -0.0877
     86  N         24.2520  -13.2900   12.9310 N.am   37  PRO37      -0.2716
     87  CA        25.0820  -12.0910   12.9770 C.3    37  PRO37       0.1536
     88  C         25.7130  -11.7950   11.6150 C.2    37  PRO37       0.2599
     89  O         26.1340  -12.7110   10.8950 O.2    37  PRO37      -0.2715
     90  CB        26.1540  -12.4390   14.0190 C.3    37  PRO37       0.0310
     91  CG        25.4660  -13.4270   14.9240 C.3    37  PRO37       0.0237
     92  CD        24.6010  -14.2400   14.0110 C.3    37  PRO37       0.0939
     93  N         25.7620  -10.5130   11.2770 N.am   38  THR38      -0.1951
     94  CA        26.3140  -10.0130   10.0160 C.3    38  THR38       0.1897
     95  C         27.8340  -10.1000    9.9810 C.2    38  THR38       0.2313
     96  O         28.5020   -9.8400   10.9640 O.2    38  THR38      -0.2863
     97  CB        25.8470   -8.5540    9.8200 C.3    38  THR38       0.1794
     98  OG1       24.4070   -8.5390    9.7680 O.3    38  THR38      -0.2208
     99  CG2       26.4200   -7.9010    8.5460 C.3    38  THR38       0.0378
    100  N         25.9340   -2.5470    8.7930 N.3    62  THR62      -0.1218
    101  CA        27.2290   -2.9330    9.3450 C.3    62  THR62       0.1862
    102  C         27.1510   -4.0670   10.3560 C.2    62  THR62       0.2287
    103  O         26.1390   -4.2510   11.0330 O.2    62  THR62      -0.2866
    104  CB        27.9640   -1.7470   10.0180 C.3    62  THR62       0.1770
    105  OG1       27.2620   -1.3310   11.2000 O.3    62  THR62      -0.2211
    106  CG2       28.1030   -0.5640    9.0580 C.3    62  THR62       0.0375
    107  N         27.8950   -5.5670   13.8760 N.3    64  GLY64      -0.1210
    108  CA        28.1660   -5.0830   15.2290 C.3    64  GLY64       0.1956
    109  C         29.1790   -5.9020   16.0130 C.2    64  GLY64       0.2611
    110  O         29.6280   -5.4550   17.0770 O.2    64  GLY64      -0.2717
    111  N         29.5390   -7.0750   15.4900 N.am   65  LEU65      -0.1979
    112  CA        30.5600   -7.9260   16.1380 C.3    65  LEU65       0.1596
    113  C         31.8600   -7.1410   16.2900 C.2    65  LEU65       0.2287
    114  O         32.2090   -6.3100   15.4390 O.2    65  LEU65      -0.2864
    115  CB        30.7980   -9.2280   15.3650 C.3    65  LEU65       0.0297
    116  CG        29.6960  -10.3040   15.4100 C.3    65  LEU65       0.0022
    117  CD1       29.8540  -11.2810   14.2740 C.3    65  LEU65       0.0001
    118  CD2       29.6540  -11.0410   16.7700 C.3    65  LEU65       0.0001
    119  N         15.0180   -0.6010   19.4600 N.3   119  ASN119     -0.1225
    120  CA        14.4020   -1.7640   18.8430 C.3   119  ASN119      0.1785
    121  C         14.0280   -2.8370   19.8600 C.2   119  ASN119      0.2597
    122  O         14.4000   -2.7730   21.0280 O.2   119  ASN119     -0.2718
    123  CB        15.3390   -2.3300   17.7600 C.3   119  ASN119      0.1169
    124  CG        14.6490   -3.3270   16.8350 C.2   119  ASN119      0.2627
    125  OD1       13.5820   -3.0550   16.2740 O.2   119  ASN119     -0.2716
    126  ND2       15.2880   -4.4790   16.6430 N.am  119  ASN119     -0.0877
    127  N         13.2820   -3.8240   19.3700 N.am  120  LYS120     -0.1980
    128  CA        12.6770   -4.8810   20.1960 C.3   120  LYS120      0.1596
    129  C         11.6250   -4.3250   21.1590 C.2   120  LYS120      0.2287
    130  O         11.4230   -4.8450   22.2570 O.2   120  LYS120     -0.2864
    131  CB        13.7260   -5.7470   20.9240 C.3   120  LYS120      0.0298
    132  CG        14.9090   -6.1990   20.0500 C.3   120  LYS120      0.0038
    133  CD        15.6140   -7.4030   20.6450 C.3   120  LYS120      0.0206
    134  CE        16.8610   -7.7400   19.8430 C.3   120  LYS120      0.1093
    135  NZ        17.4310   -9.0450   20.3090 N.3   120  LYS120     -0.1314
    136  N          8.5960   -4.6100   21.1640 N.3   122  ASP122     -0.1225
    137  CA         7.5680   -5.6110   21.4580 C.3   122  ASP122      0.1805
    138  C          7.8300   -6.3130   22.7960 C.2   122  ASP122      0.2597
    139  O          6.9060   -6.9030   23.3750 O.2   122  ASP122     -0.2718
    140  CB         7.4790   -6.6440   20.3270 C.3   122  ASP122      0.1424
    141  CG         8.8250   -7.2750   20.0110 C.2   122  ASP122      0.3668
    142  OD1        9.6610   -6.5980   19.3750 O.co2 122  ASP122     -0.2456
    143  OD2        9.0690   -8.4490   20.3620 O.co2 122  ASP122     -0.2456
    144  N          9.0690   -6.2530   23.2870 N.am  123  LEU123     -0.1979
    145  CA         9.4420   -6.9210   24.5410 C.3   123  LEU123      0.1596
    146  C          9.2040   -6.0180   25.7540 C.2   123  LEU123      0.2287
    147  O         10.1010   -5.7710   26.5510 O.2   123  LEU123     -0.2864
    148  CB        10.8870   -7.4030   24.4790 C.3   123  LEU123      0.0297
    149  CG        11.1770   -8.3520   23.3140 C.3   123  LEU123      0.0022
    150  CD1       12.6400   -8.7410   23.3050 C.3   123  LEU123      0.0001
    151  CD2       10.2970   -9.6140   23.3710 C.3   123  LEU123      0.0001
    152  N          9.9060   -2.1450   16.2980 N.3   149  SER149     -0.1202
    153  CA         9.9370   -3.6000   16.3460 C.3   149  SER149      0.2020
    154  C          9.9710   -4.1380   14.9380 C.2   149  SER149      0.2619
    155  O          9.0100   -3.9930   14.1980 O.2   149  SER149     -0.2717
    156  CB         8.7200   -4.1680   17.0870 C.3   149  SER149      0.2103
    157  OG         8.7210   -5.5990   17.0690 O.3   149  SER149     -0.2182
    158  N         11.0930   -4.7450   14.5640 N.am  150  ALA150     -0.1965
    159  CA        11.1830   -5.4490   13.2920 C.3   150  ALA150      0.1728
    160  C         10.2650   -6.6720   13.3040 C.2   150  ALA150      0.2616
    161  O          9.6990   -7.0390   12.2700 O.2   150  ALA150     -0.2715
    162  CB        12.6020   -5.8620   13.0180 C.3   150  ALA150      0.0334
    163  N         10.1080   -7.2920   14.4710 N.am  151  LYS151     -0.1977
    164  CA         9.2680   -8.4750   14.6210 C.3   151  LYS151      0.1596
    165  C          7.8020   -8.1310   14.3660 C.2   151  LYS151      0.2287
    166  O          7.1310   -8.8120   13.5830 O.2   151  LYS151     -0.2864
    167  CB         9.4360   -9.0610   16.0260 C.3   151  LYS151      0.0298
    168  CG         8.6470  -10.3510   16.2660 C.3   151  LYS151      0.0038
    169  CD         8.9660  -10.9100   17.6480 C.3   151  LYS151      0.0206
    170  CE         8.4160  -12.3150   17.8350 C.3   151  LYS151      0.1093
    171  NZ         6.9380  -12.3060   17.9280 N.3   151  LYS151     -0.1314
@<TRIPOS>BOND
     1    99    97    1
     2    44    45    1
     3    35    34    2
     4   100   101    1
     5   106   104    1
     6    62    60   ar
     7   101   104    1
     8   101   102    1
     9    77    75    1
    10    98    97    1
    11    36    37    1
    12    36    33    1
    13    97    94    1
    14    85    83   am
    15    59    60    1
    16    59    56    1
    17    34    33    1
    18    34    38   am
    19    33    32    1
    20    60    61   ar
    21    47    46    2
    22    45    46    1
    23    45    48    1
    24    95    94    1
    25    95    96    2
    26    41    40    2
    27    94    93    1
    28   104   105    1
    29    46    55   am
    30    75    74    1
    31   102   103    2
    32    26    25    2
    33    55    56    1
    34    40    39    1
    35    56    57    1
    36    89    88    2
    37    82    83    1
    38    82    79    1
    39    83    84    2
    40    38    39    1
    41    39    42    1
    42    74    71    1
    43    74    76    1
    44    32    25   am
    45    48    49    1
    46    81    80    2
    47    93    88   am
    48    25    24    1
    49    78    79    1
    50    78    72   am
    51    71    72    1
    52    71    70    1
    53    88    87    1
    54    79    80    1
    55    80    86   am
    56    72    73    2
    57   161   160    2
    58    57    58    2
    59    57    63   am
    60    42    43    1
    61    27    24    1
    62    27    28    1
    63    49    50   ar
    64    49    51   ar
    65    24    23    1
    66    69    63    1
    67    69    68    1
    68    50    52   ar
    69    86    87    1
    70    86    92    1
    71    87    90    1
    72   162   159    1
    73    63    64    1
    74   159   160    1
    75   159   158    1
    76   160   163   am
    77    22    21    2
    78    51    53   ar
    79    29    30    1
    80    29    28    1
    81    30    31    1
    82   166   165    2
    83    23    21   am
    84   107   108    1
    85    92    91    1
    86    90    91    1
    87    68    67    1
    88    21    20    1
    89    52    54   ar
    90   155   154    2
    91   117   116    1
    92   165   164    1
    93   163   164    1
    94    64    65    1
    95    64    67    1
    96   158   154   am
    97    53    54   ar
    98   164   167    1
    99    65    66    2
   100   154   153    1
   101   108   109    1
   102    20    19    1
   103   115   116    1
   104   115   112    1
   105   116   118    1
   106   114   113    2
   107   111   109   am
   108   111   112    1
   109   109   110    2
   110   167   168    1
   111   112   113    1
   112   168   169    1
   113   125   124    2
   114   152   153    1
   115   153   156    1
   116    19    14   am
   117   126   124   am
   118   124   123    1
   119   157   156    1
   120     6     5    1
   121    18    16    1
   122    14    15    2
   123    14    13    1
   124   169   170    1
   125   123   120    1
   126     8     9    1
   127     8     3   am
   128   170   171    1
   129     2     5    1
   130     2     1    1
   131     2     3    1
   132     5     7    1
   133    12    13    1
   134    12    10   am
   135     9    10    1
   136     3     4    2
   137    13    16    1
   138    10    11    2
   139    16    17    1
   140   120   119    1
   141   120   121    1
   142   127   121   am
   143   127   128    1
   144   142   141   ar
   145   134   135    1
   146   134   133    1
   147   121   122    2
   148   141   140    1
   149   141   143   ar
   150   132   133    1
   151   132   131    1
   152   128   131    1
   153   128   129    1
   154   140   137    1
   155   129   130    2
   156   136   137    1
   157   137   138    1
   158   138   144   am
   159   138   139    2
   160   144   145    1
   161   150   149    1
   162   149   151    1
   163   149   148    1
   164   148   145    1
   165   145   146    1
   166   146   147    2
