@<TRIPOS>MOLECULE
tmp/1z0jA01.pdb
 79 77 0 0 0
SMALL
GASTEIGER

@<TRIPOS>ATOM
      1  N         27.6580    7.4790   18.7450 N.3   101  VAL101     -0.1245
      2  CA        27.4700    8.9090   18.5440 C.3   101  VAL101      0.1561
      3  C         28.8150    9.6420   18.5900 C.2   101  VAL101      0.2260
      4  O         29.1130   10.4720   17.7220 O.2   101  VAL101     -0.2867
      5  CB        26.4410    9.5080   19.5430 C.3   101  VAL101      0.0252
      6  CG1       26.3800   11.0230   19.4150 C.3   101  VAL101      0.0019
      7  CG2       25.0690    8.8980   19.2870 C.3   101  VAL101      0.0019
      8  N         30.7870    8.9220   15.3390 N.3   104  LEU104     -0.1231
      9  CA        30.2750    9.7790   14.2680 C.3   104  LEU104      0.1693
     10  C         30.7230   11.2260   14.4020 C.2   104  LEU104      0.2591
     11  O         31.1320   11.8520   13.4200 O.2   104  LEU104     -0.2718
     12  CB        28.7480    9.7420   14.2250 C.3   104  LEU104      0.0284
     13  CG        28.0990    8.4400   13.7940 C.3   104  LEU104      0.0019
     14  CD1       26.5960    8.6010   13.8780 C.3   104  LEU104      0.0001
     15  CD2       28.5110    8.0490   12.3750 C.3   104  LEU104      0.0001
     16  N         30.6550   11.7630   15.6130 N.am  105  ARG105     -0.1980
     17  CA        30.9680   13.1730   15.8450 C.3   105  ARG105      0.1597
     18  C         32.4440   13.4760   15.6130 C.2   105  ARG105      0.2287
     19  O         32.8050   14.6030   15.2550 O.2   105  ARG105     -0.2864
     20  CB        30.5210   13.6090   17.2460 C.3   105  ARG105      0.0334
     21  CG        29.0250   13.8080   17.3320 C.3   105  ARG105      0.0492
     22  CD        28.5540   14.2410   18.7090 C.3   105  ARG105      0.2205
     23  NE        27.2600   14.9140   18.6090 N.pl3 105  ARG105     -0.0865
     24  CZ        26.5940   15.4450   19.6330 C.cat 105  ARG105      0.5346
     25  NH1       27.0780   15.3760   20.8680 N.pl3 105  ARG105      0.1354
     26  NH2       25.4320   16.0510   19.4180 N.pl3 105  ARG105      0.1354
     27  N         30.2860   15.2760    9.4970 N.3   109  PRO109     -0.2103
     28  CA        29.7930   16.6310    9.7690 C.3   109  PRO109      0.1489
     29  C         28.7560   16.6700   10.8900 C.2   109  PRO109      0.2418
     30  O         27.9610   15.7340   11.0240 O.2   109  PRO109     -0.2734
     31  CB        29.1320   17.0370    8.4460 C.3   109  PRO109      0.0282
     32  CG        29.7590   16.1520    7.4060 C.3   109  PRO109      0.0208
     33  CD        29.9770   14.8450    8.1180 C.3   109  PRO109      0.0893
     34  N         28.7410   17.7530   11.6910 N.am  110  PRO110     -0.2718
     35  CA        27.6970   17.8820   12.7110 C.3   110  PRO110      0.1535
     36  C         26.2920   17.8940   12.1190 C.2   110  PRO110      0.2599
     37  O         25.3310   17.6580   12.8500 O.2   110  PRO110     -0.2715
     38  CB        28.0090   19.2320   13.3700 C.3   110  PRO110      0.0310
     39  CG        29.4380   19.4430   13.1270 C.3   110  PRO110      0.0237
     40  CD        29.6960   18.8720   11.7480 C.3   110  PRO110      0.0939
     41  N         26.1800   18.1560   10.8200 N.am  111  SER111     -0.1936
     42  CA        24.8990   18.2250   10.1170 C.3   111  SER111      0.2055
     43  C         24.2900   16.8670    9.7150 C.2   111  SER111      0.2642
     44  O         23.1260   16.8160    9.3110 O.2   111  SER111     -0.2714
     45  CB        25.0460   19.0980    8.8650 C.3   111  SER111      0.2130
     46  OG        25.8500   18.4370    7.9020 O.3   111  SER111     -0.2179
     47  N         25.0550   15.7800    9.8170 N.am  112  ILE112     -0.1977
     48  CA        24.5500   14.4490    9.4390 C.3   112  ILE112      0.1596
     49  C         23.2570   14.1410   10.2000 C.2   112  ILE112      0.2287
     50  O         23.1560   14.4110   11.3990 O.2   112  ILE112     -0.2864
     51  CB        25.5990   13.3320    9.6840 C.3   112  ILE112      0.0276
     52  CG1       25.1220   12.0030    9.0700 C.3   112  ILE112      0.0022
     53  CG2       25.8990   13.1690   11.1760 C.3   112  ILE112      0.0022
     54  CD1       26.0950   10.8440    9.2140 C.3   112  ILE112      0.0001
     55  N         20.9790   12.0090   12.2450 N.3   114  VAL114     -0.1245
     56  CA        21.0810   10.8440   13.1090 C.3   114  VAL114      0.1561
     57  C         19.6920   10.4320   13.5480 C.2   114  VAL114      0.2260
     58  O         18.8810   11.2730   13.9470 O.2   114  VAL114     -0.2867
     59  CB        21.9630   11.1250   14.3420 C.3   114  VAL114      0.0252
     60  CG1       21.9950    9.9140   15.2750 C.3   114  VAL114      0.0019
     61  CG2       23.3810   11.4790   13.8990 C.3   114  VAL114      0.0019
     62  N         20.8350   15.5410   21.2270 N.3   141  ILE141     -0.1231
     63  CA        21.7730   15.4490   20.1010 C.3   141  ILE141      0.1692
     64  C         21.0770   15.7750   18.7830 C.2   141  ILE141      0.2592
     65  O         21.6520   15.5750   17.7000 O.2   141  ILE141     -0.2718
     66  CB        22.5230   14.0730   20.0300 C.3   141  ILE141      0.0266
     67  CG1       21.5710   12.8980   19.7240 C.3   141  ILE141      0.0019
     68  CG2       23.3260   13.8290   21.3030 C.3   141  ILE141      0.0020
     69  CD1       22.2950   11.6020   19.2550 C.3   141  ILE141      0.0001
     70  N         19.8470   16.2840   18.8630 N.am  142  HIS142     -0.1976
     71  CA        19.0570   16.6630   17.6840 C.3   142  HIS142      0.1656
     72  C         18.8100   15.4980   16.7290 C.2   142  HIS142      0.2291
     73  O         18.8030   15.6640   15.4990 O.2   142  HIS142     -0.2864
     74  CB        19.7030   17.8410   16.9430 C.3   142  HIS142      0.0771
     75  CG        19.8580   19.0610   17.7910 C.ar  142  HIS142      0.0820
     76  ND1       18.9360   20.0860   17.7930 N.ar  142  HIS142     -0.2267
     77  CD2       20.8150   19.4110   18.6790 C.ar  142  HIS142      0.1154
     78  CE1       19.3260   21.0200   18.6410 C.ar  142  HIS142      0.1986
     79  NE2       20.4630   20.6360   19.1920 N.ar  142  HIS142     -0.2212
@<TRIPOS>BOND
     1    32    33    1
     2    32    31    1
     3    46    45    1
     4    33    27    1
     5    31    28    1
     6    45    42    1
     7    52    54    1
     8    52    51    1
     9    44    43    2
    10    48    51    1
    11    48    47    1
    12    48    49    1
    13    27    28    1
    14    51    53    1
    15    43    47   am
    16    43    42    1
    17    28    29    1
    18    42    41    1
    19    49    50    2
    20    41    36   am
    21    29    30    2
    22    29    34   am
    23    34    40    1
    24    34    35    1
    25    40    39    1
    26    36    35    1
    27    36    37    2
    28    55    56    1
    29    15    13    1
    30    35    38    1
    31    56    57    1
    32    56    59    1
    33    39    38    1
    34    11    10    2
    35    57    58    2
    36    13    14    1
    37    13    12    1
    38    61    59    1
    39    12     9    1
    40     9    10    1
    41     9     8    1
    42    59    60    1
    43    10    16   am
    44    19    18    2
    45    73    72    2
    46    18    17    1
    47    16    17    1
    48    17    20    1
    49    72    71    1
    50    74    71    1
    51    74    75    1
    52    20    21    1
    53    21    22    1
    54    71    70    1
    55    65    64    2
    56     4     3    2
    57    75    76   ar
    58    75    77   ar
    59    76    78   ar
    60     2     3    1
    61     2     1    1
    62     2     5    1
    63    23    22    1
    64    23    24    2
    65    78    79   ar
    66    77    79   ar
    67    64    70   am
    68    64    63    1
    69    69    67    1
    70     7     5    1
    71     6     5    1
    72    26    24    1
    73    24    25    1
    74    67    66    1
    75    66    63    1
    76    66    68    1
    77    63    62    1
