@<TRIPOS>MOLECULE
tmp/1z0kC00.pdb
 184 179 0 0 0
SMALL
GASTEIGER

@<TRIPOS>ATOM
      1  N          6.6750   27.0370    1.2500 N.3    13  ALA13      -0.1231
      2  CA         6.9910   26.2260    2.4170 C.3    13  ALA13       0.1694
      3  C          8.1040   26.8750    3.2360 C.2    13  ALA13       0.2593
      4  O          9.0680   27.4180    2.6840 O.2    13  ALA13      -0.2718
      5  CB         7.3920   24.8310    1.9900 C.3    13  ALA13       0.0304
      6  N          7.9380   26.8500    4.5540 N.am   14  GLY14      -0.1942
      7  CA         8.9620   27.3190    5.4750 C.3    14  GLY14       0.2014
      8  C          9.0120   28.8180    5.6690 C.2    14  GLY14       0.2640
      9  O          9.9450   29.3260    6.2880 O.2    14  GLY14      -0.2714
     10  N          8.0080   29.5310    5.1600 N.am   15  THR15      -0.1936
     11  CA         7.9730   30.9950    5.2660 C.3    15  THR15       0.2028
     12  C          7.5460   31.5000    6.6490 C.2    15  THR15       0.2643
     13  O          7.8640   32.6280    7.0260 O.2    15  THR15      -0.2714
     14  CB         7.0930   31.6530    4.1690 C.3    15  THR15       0.1808
     15  OG1        5.8530   30.9500    4.0410 O.3    15  THR15      -0.2208
     16  CG2        7.8000   31.6330    2.8340 C.3    15  THR15       0.0379
     17  N          6.8210   30.6650    7.3910 N.am   16  GLY16      -0.1939
     18  CA         6.3920   31.0000    8.7540 C.3    16  GLY16       0.2014
     19  C          4.8840   31.0580    8.9170 C.2    16  GLY16       0.2639
     20  O          4.3780   31.5790    9.9160 O.2    16  GLY16      -0.2714
     21  N          4.1650   30.5140    7.9400 N.am   17  LYS17      -0.1963
     22  CA         2.7010   30.6090    7.9100 C.3    17  LYS17       0.1728
     23  C          2.0340   30.0170    9.1630 C.2    17  LYS17       0.2617
     24  O          1.1560   30.6380    9.7430 O.2    17  LYS17      -0.2715
     25  CB         2.1420   29.9560    6.6460 C.3    17  LYS17       0.0311
     26  CG         2.5550   30.6660    5.3460 C.3    17  LYS17       0.0038
     27  CD         1.9500   30.0230    4.1120 C.3    17  LYS17       0.0206
     28  CE         2.2950   28.5350    3.9640 C.3    17  LYS17       0.1093
     29  NZ         3.7450   28.2560    3.8260 N.3    17  LYS17      -0.1314
     30  N          2.4630   28.8310    9.5810 N.am   18  SER18      -0.1936
     31  CA         1.8370   28.1630   10.7320 C.3    18  SER18       0.2055
     32  C          2.1830   28.8850   12.0260 C.2    18  SER18       0.2643
     33  O          1.3180   29.0800   12.8890 O.2    18  SER18      -0.2714
     34  CB         2.2360   26.6970   10.8090 C.3    18  SER18       0.2130
     35  OG         1.8370   26.0160    9.6280 O.3    18  SER18      -0.2179
     36  N          3.4430   29.3100   12.1420 N.am   19  CYS19      -0.1967
     37  CA         3.8640   30.1050   13.2900 C.3    19  CYS19       0.1712
     38  C          3.1260   31.4340   13.3620 C.2    19  CYS19       0.2296
     39  O          2.7770   31.8840   14.4520 O.2    19  CYS19      -0.2864
     40  CB         5.3810   30.3020   13.3110 C.3    19  CYS19       0.0983
     41  SG         6.2510   28.7570   13.5340 S.3    19  CYS19      -0.0798
     42  N          5.3370   32.2940   20.2670 N.3    29  PHE29      -0.1227
     43  CA         6.0340   31.6290   19.1790 C.3    29  PHE29       0.1736
     44  C          5.9310   30.1260   19.3850 C.2    29  PHE29       0.2595
     45  O          6.2000   29.6180   20.4760 O.2    29  PHE29      -0.2718
     46  CB         7.4940   32.0760   19.0780 C.3    29  PHE29       0.0547
     47  CG         8.2350   31.4560   17.9250 C.ar   29  PHE29      -0.0202
     48  CD1        7.8940   31.7740   16.6080 C.ar   29  PHE29      -0.0042
     49  CD2        9.2620   30.5460   18.1510 C.ar   29  PHE29      -0.0042
     50  CE1        8.5690   31.2060   15.5380 C.ar   29  PHE29      -0.0003
     51  CE2        9.9420   29.9730   17.0820 C.ar   29  PHE29      -0.0003
     52  CZ         9.5930   30.3060   15.7730 C.ar   29  PHE29      -0.0000
     53  N          5.5080   29.4340   18.3320 N.am   30  LYS30      -0.1980
     54  CA         5.3020   27.9930   18.3570 C.3    30  LYS30       0.1596
     55  C          6.6290   27.2460   18.3680 C.2    30  LYS30       0.2287
     56  O          7.5060   27.5150   17.5460 O.2    30  LYS30      -0.2864
     57  CB         4.4620   27.5750   17.1440 C.3    30  LYS30       0.0298
     58  CG         4.1370   26.0980   17.0550 C.3    30  LYS30       0.0038
     59  CD         3.2870   25.8270   15.8280 C.3    30  LYS30       0.0206
     60  CE         2.8910   24.3670   15.7270 C.3    30  LYS30       0.1093
     61  NZ         2.2250   24.0910   14.4170 N.3    30  LYS30      -0.1314
     62  N          8.9450   24.0000   17.6800 N.3    32  ASP32      -0.1225
     63  CA         9.0340   22.8510   16.7700 C.3    32  ASP32       0.1805
     64  C          7.8640   22.7500   15.7750 C.2    32  ASP32       0.2598
     65  O          7.1110   21.7700   15.7660 O.2    32  ASP32      -0.2718
     66  CB         9.1870   21.5580   17.5780 C.3    32  ASP32       0.1424
     67  CG        10.4170   21.5750   18.4740 C.2    32  ASP32       0.3668
     68  OD1       11.5470   21.4830   17.9400 O.co2  32  ASP32      -0.2456
     69  OD2       10.2500   21.6800   19.7090 O.co2  32  ASP32      -0.2456
     70  N          7.7170   23.7810   14.9490 N.am   33  SER33      -0.1938
     71  CA         6.7110   23.7890   13.8970 C.3    33  SER33       0.2055
     72  C          7.1430   22.8580   12.7670 C.2    33  SER33       0.2643
     73  O          8.2000   23.0570   12.1630 O.2    33  SER33      -0.2714
     74  CB         6.5000   25.2160   13.3770 C.3    33  SER33       0.2130
     75  OG         5.4080   25.2890   12.4780 O.3    33  SER33      -0.2179
     76  N          6.3370   21.8260   12.5170 N.am   34  ASN34      -0.1957
     77  CA         6.5620   20.8960   11.4060 C.3    34  ASN34       0.1819
     78  C          5.8460   21.3890   10.1520 C.2    34  ASN34       0.2621
     79  O          4.8160   22.0630   10.2520 O.2    34  ASN34      -0.2715
     80  CB         6.0380   19.4950   11.7490 C.3    34  ASN34       0.1195
     81  CG         6.5890   18.9410   13.0670 C.2    34  ASN34       0.2630
     82  OD1        7.6310   19.3780   13.5730 O.2    34  ASN34      -0.2716
     83  ND2        5.8820   17.9600   13.6220 N.am   34  ASN34      -0.0877
     84  N          6.3840   21.0470    8.9780 N.am   35  HIS35      -0.1959
     85  CA         5.7350   21.3450    7.6930 C.3    35  HIS35       0.1787
     86  C          4.2870   20.8510    7.6780 C.2    35  HIS35       0.2620
     87  O          4.0030   19.7310    8.1060 O.2    35  HIS35      -0.2715
     88  CB         6.5190   20.7290    6.5230 C.3    35  HIS35       0.0785
     89  CG         7.8290   21.4030    6.2430 C.ar   35  HIS35       0.0821
     90  ND1        7.9160   22.6640    5.6890 N.ar   35  HIS35      -0.2267
     91  CD2        9.1040   20.9890    6.4320 C.ar   35  HIS35       0.1154
     92  CE1        9.1880   23.0010    5.5580 C.ar   35  HIS35       0.1986
     93  NE2        9.9300   22.0020    6.0000 N.ar   35  HIS35      -0.2212
     94  N          3.3810   21.6980    7.1920 N.am   36  THR36      -0.1951
     95  CA         1.9470   21.4120    7.1970 C.3    36  THR36       0.1897
     96  C          1.5860   20.3550    6.1640 C.2    36  THR36       0.2313
     97  O          2.0240   20.4140    5.0170 O.2    36  THR36      -0.2863
     98  CB         1.1220   22.6930    6.9480 C.3    36  THR36       0.1794
     99  OG1        1.4140   23.6490    7.9730 O.3    36  THR36      -0.2208
    100  CG2       -0.3740   22.4130    6.9470 C.3    36  THR36       0.0378
    101  N         -4.7500   27.5840    7.0430 N.3    59  ASP59      -0.1225
    102  CA        -3.3030   27.6270    7.0110 C.3    59  ASP59       0.1805
    103  C         -2.8270   26.5540    6.0360 C.2    59  ASP59       0.2598
    104  O         -2.7280   25.3800    6.3880 O.2    59  ASP59      -0.2718
    105  CB        -2.7500   27.4130    8.4350 C.3    59  ASP59       0.1424
    106  CG        -1.2380   27.2240    8.4720 C.2    59  ASP59       0.3668
    107  OD1       -0.5320   27.7490    7.5860 O.co2  59  ASP59      -0.2456
    108  OD2       -0.7560   26.5400    9.3990 O.co2  59  ASP59      -0.2456
    109  N         -2.5290   26.9810    4.8080 N.am   60  THR60      -0.1939
    110  CA        -2.2090   26.0700    3.7150 C.3    60  THR60       0.2028
    111  C         -0.7550   25.6110    3.7380 C.2    60  THR60       0.2642
    112  O          0.1390   26.3430    4.1870 O.2    60  THR60      -0.2714
    113  CB        -2.5220   26.7090    2.3360 C.3    60  THR60       0.1808
    114  OG1       -1.6580   27.8350    2.1160 O.3    60  THR60      -0.2208
    115  CG2       -3.9720   27.1730    2.2770 C.3    60  THR60       0.0379
    116  N         -0.5310   24.3910    3.2520 N.am   61  ALA61      -0.1963
    117  CA         0.8070   23.8630    3.0330 C.3    61  ALA61       0.1728
    118  C          1.5000   24.6090    1.8910 C.2    61  ALA61       0.2617
    119  O          0.8740   24.9300    0.8780 O.2    61  ALA61      -0.2715
    120  CB         0.7310   22.3920    2.7040 C.3    61  ALA61       0.0334
    121  N          2.7920   24.8710    2.0560 N.am   62  GLY62      -0.1940
    122  CA         3.5930   25.4900    1.0090 C.3    62  GLY62       0.2014
    123  C          4.3080   24.4780    0.1330 C.2    62  GLY62       0.2638
    124  O          4.7110   24.8050   -0.9890 O.2    62  GLY62      -0.2714
    125  N          4.4810   23.2550    0.6500 N.am   63  LEU63      -0.1977
    126  CA         5.0920   22.1600   -0.1110 C.3    63  LEU63       0.1596
    127  C          4.2760   21.8700   -1.3610 C.2    63  LEU63       0.2287
    128  O          3.0520   21.7540   -1.2930 O.2    63  LEU63      -0.2864
    129  CB         5.2440   20.9180    0.7670 C.3    63  LEU63       0.0297
    130  CG         6.1100   21.0740    2.0180 C.3    63  LEU63       0.0022
    131  CD1        6.1740   19.7670    2.7940 C.3    63  LEU63       0.0001
    132  CD2        7.5080   21.5460    1.6480 C.3    63  LEU63       0.0001
    133  N          7.8070   37.9380    6.3670 N.3   117  ASN117     -0.1225
    134  CA         7.9950   37.3090    7.6720 C.3   117  ASN117      0.1785
    135  C          9.4590   37.0400    8.0370 C.2   117  ASN117      0.2597
    136  O         10.3380   37.0140    7.1670 O.2   117  ASN117     -0.2718
    137  CB         7.1640   36.0210    7.7920 C.3   117  ASN117      0.1169
    138  CG         7.0490   35.5250    9.2270 C.2   117  ASN117      0.2627
    139  OD1        6.7200   36.2850   10.1330 O.2   117  ASN117     -0.2716
    140  ND2        7.3360   34.2470    9.4370 N.am  117  ASN117     -0.0877
    141  N          9.6850   36.8340    9.3360 N.am  118  LYS118     -0.1980
    142  CA        10.9970   36.5490    9.9320 C.3   118  LYS118      0.1596
    143  C         11.8740   37.7910    9.9980 C.2   118  LYS118      0.2287
    144  O         13.0980   37.7010    9.8820 O.2   118  LYS118     -0.2864
    145  CB        11.7210   35.3930    9.2250 C.3   118  LYS118      0.0298
    146  CG        10.9250   34.1010    9.1440 C.3   118  LYS118      0.0038
    147  CD        11.8140   32.9620    8.7190 C.3   118  LYS118      0.0206
    148  CE        11.0190   31.7260    8.4040 C.3   118  LYS118      0.1093
    149  NZ        11.9150   30.6120    7.9810 N.3   118  LYS118     -0.1314
    150  N         12.7280   39.4800   12.4410 N.3   120  ASP120     -0.1225
    151  CA        13.6810   39.3770   13.5530 C.3   120  ASP120      0.1805
    152  C         15.0570   38.9180   13.0540 C.2   120  ASP120      0.2597
    153  O         16.0800   39.2550   13.6510 O.2   120  ASP120     -0.2718
    154  CB        13.1550   38.4380   14.6470 C.3   120  ASP120      0.1424
    155  CG        12.8100   37.0640   14.1220 C.2   120  ASP120      0.3668
    156  OD1       11.7530   36.9180   13.4700 O.co2 120  ASP120     -0.2456
    157  OD2       13.5870   36.1240   14.3660 O.co2 120  ASP120     -0.2456
    158  N         15.0640   38.1670   11.9500 N.am  121  LEU121     -0.1979
    159  CA        16.2920   37.6640   11.3270 C.3   121  LEU121      0.1596
    160  C         16.8790   38.6320   10.2940 C.2   121  LEU121      0.2287
    161  O         17.4510   38.2020    9.2840 O.2   121  LEU121     -0.2864
    162  CB        16.0340   36.3030   10.6750 C.3   121  LEU121      0.0297
    163  CG        15.5440   35.1130   11.5030 C.3   121  LEU121      0.0022
    164  CD1       15.3560   33.9090   10.5960 C.3   121  LEU121      0.0001
    165  CD2       16.4940   34.7840   12.6640 C.3   121  LEU121      0.0001
    166  N          7.0940   39.3210   12.4240 N.3   147  SER147     -0.1202
    167  CA         7.8370   38.2750   13.0770 C.3   147  SER147      0.2020
    168  C          6.8650   37.4280   13.8660 C.2   147  SER147      0.2619
    169  O          6.2410   37.9170   14.8040 O.2   147  SER147     -0.2717
    170  CB         8.8920   38.8640   14.0130 C.3   147  SER147      0.2103
    171  OG         9.5980   37.8290   14.6630 O.3   147  SER147     -0.2182
    172  N          6.7350   36.1610   13.4840 N.am  148  ALA148     -0.1965
    173  CA         5.9750   35.2020   14.2810 C.3   148  ALA148      0.1728
    174  C          6.6870   34.9230   15.6060 C.2   148  ALA148      0.2616
    175  O          6.0530   34.5210   16.5760 O.2   148  ALA148     -0.2715
    176  CB         5.7630   33.9240   13.5150 C.3   148  ALA148      0.0334
    177  N          8.0010   35.1440   15.6380 N.am  149  LEU149     -0.1977
    178  CA         8.7960   34.9900   16.8580 C.3   149  LEU149      0.1596
    179  C          8.4760   36.0540   17.9190 C.2   149  LEU149      0.2287
    180  O          8.1140   35.7160   19.0500 O.2   149  LEU149     -0.2864
    181  CB        10.2940   34.9690   16.5230 C.3   149  LEU149      0.0297
    182  CG        11.3000   34.5650   17.6120 C.3   149  LEU149      0.0022
    183  CD1       12.5850   34.0610   16.9840 C.3   149  LEU149      0.0001
    184  CD2       11.6000   35.7300   18.5210 C.3   149  LEU149      0.0001
@<TRIPOS>BOND
     1   127   128    2
     2   127   126    1
     3   124   123    2
     4   126   125    1
     5   126   129    1
     6   123   125   am
     7   123   122    1
     8   129   130    1
     9   119   118    2
    10   122   121    1
    11     1     2    1
    12   132   130    1
    13   118   121   am
    14   118   117    1
    15     5     2    1
    16   130   131    1
    17   114   113    1
    18   115   113    1
    19   113   110    1
    20     2     3    1
    21     4     3    2
    22   120   117    1
    23    16    14    1
    24   117   116    1
    25     3     6   am
    26   116   111   am
    27   110   111    1
    28   110   109    1
    29   111   112    2
    30    29    28    1
    31    28    27    1
    32    15    14    1
    33    27    26    1
    34    14    11    1
    35     6     7    1
    36   109   103   am
    37    97    96    2
    38    10    11    1
    39    10     8   am
    40    11    12    1
    41    26    25    1
    42     7     8    1
    43    92    90   ar
    44    92    93   ar
    45     8     9    2
    46    90    89   ar
    47    93    91   ar
    48   103   104    2
    49   103   102    1
    50    96    95    1
    51    89    91   ar
    52    89    88    1
    53   133   134    1
    54    88    85    1
    55    25    22    1
    56    12    13    2
    57    12    17   am
    58   100    98    1
    59    98    95    1
    60    98    99    1
    61   102   101    1
    62   102   105    1
    63   136   135    2
    64    94    95    1
    65    94    86   am
    66    17    18    1
    67   107   106   ar
    68   134   137    1
    69   134   135    1
    70    86    85    1
    71    86    87    2
    72    85    84    1
    73   137   138    1
    74    22    21    1
    75    22    23    1
    76    21    19   am
    77   149   148    1
    78   135   141   am
    79   148   147    1
    80   105   106    1
    81   106   108   ar
    82   147   146    1
    83    18    19    1
    84    19    20    2
    85    84    78   am
    86   146   145    1
    87    23    30   am
    88    23    24    2
    89   145   142    1
    90   138   140   am
    91   138   139    2
    92   161   160    2
    93   141   142    1
    94    30    31    1
    95    35    34    1
    96   144   143    2
    97   142   143    1
    98    78    79    2
    99    78    77    1
   100   160   159    1
   101   164   163    1
   102   162   159    1
   103   162   163    1
   104    31    34    1
   105    31    32    1
   106   159   158    1
   107    77    80    1
   108    77    76    1
   109   163   165    1
   110    80    81    1
   111   158   152   am
   112    32    36   am
   113    32    33    2
   114    36    37    1
   115    73    72    2
   116   166   167    1
   117   150   151    1
   118    75    74    1
   119    76    72   am
   120    72    71    1
   121   152   151    1
   122   152   153    2
   123    81    82    2
   124    81    83   am
   125   167   168    1
   126   167   170    1
   127    37    40    1
   128    37    38    1
   129    40    41    1
   130    38    39    2
   131    74    71    1
   132   156   155   ar
   133   172   168   am
   134   172   173    1
   135   176   173    1
   136   151   154    1
   137   168   169    2
   138    71    70    1
   139   170   171    1
   140   155   157   ar
   141   155   154    1
   142   173   174    1
   143    61    60    1
   144    70    64   am
   145    50    52   ar
   146    50    48   ar
   147   174   177   am
   148   174   175    2
   149   177   178    1
   150    60    59    1
   151    65    64    2
   152    52    51   ar
   153    64    63    1
   154    59    58    1
   155   181   178    1
   156   181   182    1
   157    48    47   ar
   158    63    66    1
   159    63    62    1
   160   178   179    1
   161   183   182    1
   162    58    57    1
   163    51    49   ar
   164    57    54    1
   165    56    55    2
   166    66    67    1
   167   182   184    1
   168   179   180    2
   169    47    49   ar
   170    47    46    1
   171    68    67   ar
   172    53    54    1
   173    53    44   am
   174    54    55    1
   175    67    69   ar
   176    46    43    1
   177    43    44    1
   178    43    42    1
   179    44    45    2
