@<TRIPOS>MOLECULE
tmp/1z0sB00.pdb
 92 86 0 0 0
SMALL
GASTEIGER

@<TRIPOS>ATOM
      1  N         22.5370   27.6200   -3.8100 N.3     8  LYS8       -0.1245
      2  CA        22.1070   27.4990   -2.4180 C.3     8  LYS8        0.1561
      3  C         23.3290   27.5730   -1.4950 C.2     8  LYS8        0.2260
      4  O         23.3230   28.3310   -0.5270 O.2     8  LYS8       -0.2867
      5  CB        21.3190   26.1940   -2.2000 C.3     8  LYS8        0.0271
      6  CG        20.7850   26.0170   -0.7720 C.3     8  LYS8        0.0035
      7  CD        19.3600   25.4700   -0.7440 C.3     8  LYS8        0.0206
      8  CE        19.0050   24.8850    0.6140 C.3     8  LYS8        0.1093
      9  NZ        17.7120   24.1290    0.6030 N.3     8  LYS8       -0.1314
     10  N         15.2610   20.9440   -5.0190 N.3    50  GLY50      -0.1225
     11  CA        14.6060   22.0960   -4.4200 C.3    50  GLY50       0.1811
     12  C         15.0870   23.4400   -4.9390 C.2    50  GLY50       0.2280
     13  O         14.2990   24.3660   -5.1210 O.2    50  GLY50      -0.2866
     14  N         13.4160   23.9290   -8.1840 N.3    53  LEU53      -0.1231
     15  CA        12.0090   24.3070   -8.0430 C.3    53  LEU53       0.1693
     16  C         11.8760   25.7940   -7.6990 C.2    53  LEU53       0.2591
     17  O         10.9680   26.4660   -8.1820 O.2    53  LEU53      -0.2718
     18  CB        11.3110   23.4520   -6.9750 C.3    53  LEU53       0.0284
     19  CG        11.2180   21.9590   -7.3060 C.3    53  LEU53       0.0019
     20  CD1       10.6140   21.1940   -6.1230 C.3    53  LEU53       0.0001
     21  CD2       10.4260   21.7200   -8.5720 C.3    53  LEU53       0.0001
     22  N         12.7960   26.3040   -6.8870 N.am   54  ARG54      -0.1980
     23  CA        12.7550   27.7020   -6.4490 C.3    54  ARG54       0.1597
     24  C         13.1360   28.6630   -7.5790 C.2    54  ARG54       0.2287
     25  O         12.5710   29.7450   -7.6980 O.2    54  ARG54      -0.2864
     26  CB        13.6230   27.8980   -5.2100 C.3    54  ARG54       0.0334
     27  CG        13.0300   27.2180   -3.9770 C.3    54  ARG54       0.0492
     28  CD        13.7490   27.4900   -2.6790 C.3    54  ARG54       0.2205
     29  NE        14.8700   26.5760   -2.4600 N.pl3  54  ARG54      -0.0865
     30  CZ        14.7730   25.3470   -1.9530 C.cat  54  ARG54       0.5346
     31  NH1       13.5950   24.8320   -1.5940 N.pl3  54  ARG54       0.1354
     32  NH2       15.8710   24.6140   -1.8040 N.pl3  54  ARG54       0.1354
     33  N          6.1790   20.0170  -10.1010 N.3   115  ASN115     -0.1225
     34  CA         5.9110   18.7340   -9.4160 C.3   115  ASN115      0.1785
     35  C          4.4230   18.5400   -9.0820 C.2   115  ASN115      0.2597
     36  O          3.7910   17.5800   -9.5270 O.2   115  ASN115     -0.2718
     37  CB         6.7130   18.6210   -8.1290 C.3   115  ASN115      0.1169
     38  CG         8.1890   18.2900   -8.3500 C.2   115  ASN115      0.2627
     39  OD1        8.6140   17.8910   -9.4350 O.2   115  ASN115     -0.2716
     40  ND2        8.9720   18.4440   -7.2910 N.am  115  ASN115     -0.0877
     41  N          3.8750   19.4240   -8.2550 N.am  116  GLU116     -0.1979
     42  CA         2.4800   19.2730   -7.8340 C.3   116  GLU116      0.1602
     43  C          1.8850   20.5240   -7.2460 C.2   116  GLU116      0.2287
     44  O          2.5870   21.4240   -6.7980 O.2   116  GLU116     -0.2864
     45  CB         2.3490   18.1440   -6.7990 C.3   116  GLU116      0.0415
     46  CG         2.7460   18.4900   -5.3660 C.3   116  GLU116      0.1163
     47  CD         4.2520   18.5250   -5.1900 C.2   116  GLU116      0.3649
     48  OE1        4.9030   17.5340   -5.5710 O.co2 116  GLU116     -0.2457
     49  OE2        4.7640   19.5310   -4.6540 O.co2 116  GLU116     -0.2457
     50  N          7.8580   12.7150   -6.2090 N.3   157  GLY157     -0.1210
     51  CA         7.8950   13.6450   -5.0990 C.3   157  GLY157      0.1956
     52  C          6.8300   13.3650   -4.0480 C.2   157  GLY157      0.2611
     53  O          6.7280   12.2700   -3.5130 O.2   157  GLY157     -0.2717
     54  N          6.0420   14.3750   -3.7260 N.am  158  TYR158     -0.1976
     55  CA         4.9870   14.2130   -2.7260 C.3   158  TYR158      0.1639
     56  C          4.0540   13.0420   -3.0780 C.2   158  TYR158      0.2290
     57  O          3.6850   12.2490   -2.1970 O.2   158  TYR158     -0.2864
     58  CB         4.1710   15.5060   -2.5950 C.3   158  TYR158      0.0560
     59  CG         3.6160   15.8480   -1.2120 C.ar  158  TYR158     -0.0198
     60  CD1        3.4700   14.8970   -0.2040 C.ar  158  TYR158     -0.0009
     61  CD2        3.2340   17.1480   -0.9230 C.ar  158  TYR158     -0.0009
     62  CE1        2.9530   15.2430    1.0510 C.ar  158  TYR158      0.0417
     63  CE2        2.7120   17.4950    0.3090 C.ar  158  TYR158      0.0417
     64  CZ         2.5750   16.5420    1.2930 C.ar  158  TYR158      0.1957
     65  OH         2.0760   16.8880    2.5320 O.3   158  TYR158     -0.2866
     66  N          5.5390    9.7480   -1.9480 N.3   161  SER161     -0.1217
     67  CA         5.4290    9.5880   -0.5100 C.3   161  SER161      0.1889
     68  C          4.0210    9.1720   -0.0820 C.2   161  SER161      0.2288
     69  O          3.8710    8.3980    0.8750 O.2   161  SER161     -0.2866
     70  CB         5.8070   10.8980    0.1930 C.3   161  SER161      0.2089
     71  OG         7.1590   11.2320   -0.0820 O.3   161  SER161     -0.2183
     72  N          4.6390   23.1840   -5.4660 N.3   209  ASP209     -0.1225
     73  CA         6.0000   22.6400   -5.3870 C.3   209  ASP209      0.1805
     74  C          6.6710   22.7860   -4.0220 C.2   209  ASP209      0.2598
     75  O          7.9050   22.8860   -3.9340 O.2   209  ASP209     -0.2718
     76  CB         6.8860   23.2890   -6.4600 C.3   209  ASP209      0.1424
     77  CG         6.6270   22.7560   -7.8390 C.2   209  ASP209      0.3668
     78  OD1        5.8860   21.7620   -7.9990 O.co2 209  ASP209     -0.2456
     79  OD2        7.1620   23.2650   -8.8430 O.co2 209  ASP209     -0.2456
     80  N          5.8760   22.8190   -2.9580 N.am  210  GLY210     -0.1942
     81  CA         6.4080   22.9400   -1.6120 C.3   210  GLY210      0.2014
     82  C          6.9530   24.3120   -1.2900 C.2   210  GLY210      0.2638
     83  O          7.5610   24.5110   -0.2380 O.2   210  GLY210     -0.2714
     84  N          6.7250   25.2700   -2.1830 N.am  211  GLN211     -0.1977
     85  CA         7.2170   26.6210   -1.9850 C.3   211  GLN211      0.1601
     86  C          6.0550   27.5800   -1.6860 C.2   211  GLN211      0.2287
     87  O          5.7080   27.7930   -0.5200 O.2   211  GLN211     -0.2864
     88  CB         8.0530   27.0770   -3.1930 C.3   211  GLN211      0.0394
     89  CG         9.0360   26.0220   -3.7470 C.3   211  GLN211      0.0908
     90  CD         9.9620   25.4290   -2.6880 C.2   211  GLN211      0.2608
     91  OE1       10.5170   26.1570   -1.8680 O.2   211  GLN211     -0.2717
     92  NE2       10.1590   24.1140   -2.7330 N.am  211  GLN211     -0.0878
@<TRIPOS>BOND
     1    33    34    1
     2    36    35    2
     3    39    38    2
     4    34    35    1
     5    34    37    1
     6    35    41   am
     7    79    77   ar
     8    21    19    1
     9    38    37    1
    10    38    40   am
    11    41    42    1
    12    14    15    1
    13    17    16    2
    14    15    16    1
    15    15    18    1
    16    78    77   ar
    17    77    76    1
    18    42    43    1
    19    42    45    1
    20    16    22   am
    21    25    24    2
    22    24    23    1
    23    19    18    1
    24    19    20    1
    25    43    44    2
    26    22    23    1
    27    45    46    1
    28    76    73    1
    29    23    26    1
    30    50    51    1
    31    48    47   ar
    32    72    73    1
    33    73    74    1
    34    46    47    1
    35    26    27    1
    36    47    49   ar
    37    13    12    2
    38    51    52    1
    39    10    11    1
    40    12    11    1
    41    52    54   am
    42    52    53    2
    43    74    75    2
    44    74    80   am
    45    27    28    1
    46     1     2    1
    47    89    88    1
    48    89    90    1
    49    54    55    1
    50    88    85    1
    51    56    55    1
    52    56    57    2
    53    80    81    1
    54    92    90   am
    55    55    58    1
    56    90    91    2
    57    28    29    1
    58    58    59    1
    59    29    30    2
    60     2     5    1
    61     2     3    1
    62     5     6    1
    63    84    85    1
    64    84    82   am
    65    85    86    1
    66    30    32    1
    67    30    31    1
    68    66    67    1
    69    86    87    2
    70    81    82    1
    71     3     4    2
    72    82    83    2
    73    59    61   ar
    74    59    60   ar
    75    61    63   ar
    76     6     7    1
    77     7     8    1
    78    67    68    1
    79    67    70    1
    80    60    62   ar
    81    71    70    1
    82    68    69    2
    83    63    64   ar
    84     9     8    1
    85    62    64   ar
    86    64    65    1
