@<TRIPOS>MOLECULE
tmp/1z0sB02.pdb
 73 69 0 0 0
SMALL
GASTEIGER

@<TRIPOS>ATOM
      1  N         22.5370   27.6200   -3.8100 N.3     8  LYS8       -0.1245
      2  CA        22.1070   27.4990   -2.4180 C.3     8  LYS8        0.1561
      3  C         23.3290   27.5730   -1.4950 C.2     8  LYS8        0.2260
      4  O         23.3230   28.3310   -0.5270 O.2     8  LYS8       -0.2867
      5  CB        21.3190   26.1940   -2.2000 C.3     8  LYS8        0.0271
      6  CG        20.7850   26.0170   -0.7720 C.3     8  LYS8        0.0035
      7  CD        19.3600   25.4700   -0.7440 C.3     8  LYS8        0.0206
      8  CE        19.0050   24.8850    0.6140 C.3     8  LYS8        0.1093
      9  NZ        17.7120   24.1290    0.6030 N.3     8  LYS8       -0.1314
     10  N         22.8930   22.9370   -6.4770 N.3    47  GLY47      -0.1210
     11  CA        22.0600   22.4890   -5.3750 C.3    47  GLY47       0.1956
     12  C         21.3470   21.2070   -5.7530 C.2    47  GLY47       0.2612
     13  O         21.7100   20.5390   -6.7250 O.2    47  GLY47      -0.2717
     14  N         20.3140   20.8670   -4.9960 N.am   48  GLY48      -0.1942
     15  CA        19.4710   19.7320   -5.3270 C.3    48  GLY48       0.2014
     16  C         18.2520   20.1280   -6.1340 C.2    48  GLY48       0.2639
     17  O         18.2190   21.1940   -6.7490 O.2    48  GLY48      -0.2714
     18  N         17.2360   19.2700   -6.1130 N.am   49  ASP49      -0.1957
     19  CA        16.0070   19.5090   -6.8640 C.3    49  ASP49       0.1840
     20  C         15.2380   20.7240   -6.3370 C.2    49  ASP49       0.2623
     21  O         14.6080   21.4300   -7.1170 O.2    49  ASP49      -0.2715
     22  CB        15.0900   18.2780   -6.8330 C.3    49  ASP49       0.1450
     23  CG        15.6470   17.0950   -7.6150 C.2    49  ASP49       0.3671
     24  OD1       16.3910   17.2970   -8.6020 O.co2  49  ASP49      -0.2456
     25  OD2       15.3960   15.9080   -7.2990 O.co2  49  ASP49      -0.2456
     26  N         15.2610   20.9440   -5.0190 N.am   50  GLY50      -0.1940
     27  CA        14.6060   22.0960   -4.4200 C.3    50  GLY50       0.2014
     28  C         15.0870   23.4400   -4.9390 C.2    50  GLY50       0.2639
     29  O         14.2990   24.3660   -5.1210 O.2    50  GLY50      -0.2714
     30  N         16.3860   23.5530   -5.1750 N.am   51  THR51      -0.1950
     31  CA        16.9690   24.7670   -5.7360 C.3    51  THR51       0.1897
     32  C         16.3810   25.0190   -7.1290 C.2    51  THR51       0.2313
     33  O         16.0080   26.1450   -7.4620 O.2    51  THR51      -0.2863
     34  CB        18.5040   24.6250   -5.7720 C.3    51  THR51       0.1794
     35  OG1       19.0110   24.5840   -4.4260 O.3    51  THR51      -0.2208
     36  CG2       19.1770   25.8450   -6.3900 C.3    51  THR51       0.0378
     37  N         12.7960   26.3040   -6.8870 N.3    54  ARG54      -0.1245
     38  CA        12.7550   27.7020   -6.4490 C.3    54  ARG54       0.1563
     39  C         13.1360   28.6630   -7.5790 C.2    54  ARG54       0.2260
     40  O         12.5710   29.7450   -7.6980 O.2    54  ARG54      -0.2867
     41  CB        13.6230   27.8980   -5.2100 C.3    54  ARG54       0.0307
     42  CG        13.0300   27.2180   -3.9770 C.3    54  ARG54       0.0489
     43  CD        13.7490   27.4900   -2.6790 C.3    54  ARG54       0.2205
     44  NE        14.8700   26.5760   -2.4600 N.pl3  54  ARG54      -0.0865
     45  CZ        14.7730   25.3470   -1.9530 C.cat  54  ARG54       0.5346
     46  NH1       13.5950   24.8320   -1.5940 N.pl3  54  ARG54       0.1354
     47  NH2       15.8710   24.6140   -1.8040 N.pl3  54  ARG54       0.1354
     48  N         22.6670   18.0650   -3.8870 N.3    71  GLY71      -0.1210
     49  CA        21.6020   17.5470   -3.0490 C.3    71  GLY71       0.1956
     50  C         21.6980   16.0530   -2.8060 C.2    71  GLY71       0.2612
     51  O         22.7860   15.5100   -2.6260 O.2    71  GLY71      -0.2717
     52  N         20.5460   15.3910   -2.8070 N.am   72  ARG72      -0.1965
     53  CA        20.4310   14.0190   -2.3270 C.3    72  ARG72       0.1729
     54  C         20.1710   12.9980   -3.4490 C.2    72  ARG72       0.2616
     55  O         20.9360   12.0360   -3.5940 O.2    72  ARG72      -0.2715
     56  CB        19.3550   13.9490   -1.2400 C.3    72  ARG72       0.0348
     57  CG        19.8610   14.3140    0.1640 C.3    72  ARG72       0.0492
     58  CD        19.8110   15.8110    0.5090 C.3    72  ARG72       0.2205
     59  NE        21.1340   16.4360    0.5490 N.pl3  72  ARG72      -0.0865
     60  CZ        21.3810   17.6750    0.9850 C.cat  72  ARG72       0.5346
     61  NH1       20.3950   18.4570    1.4340 N.pl3  72  ARG72       0.1354
     62  NH2       22.6240   18.1430    0.9700 N.pl3  72  ARG72       0.1354
     63  N         19.1170   13.1900   -4.2380 N.am   73  VAL73      -0.1963
     64  CA        18.8460   12.2880   -5.3710 C.3    73  VAL73       0.1727
     65  C         19.0050   12.9780   -6.7360 C.2    73  VAL73       0.2616
     66  O         19.6170   12.4210   -7.6380 O.2    73  VAL73      -0.2715
     67  CB        17.4720   11.5690   -5.2550 C.3    73  VAL73       0.0290
     68  CG1       17.4410   10.7030   -4.0010 C.3    73  VAL73       0.0023
     69  CG2       16.2990   12.5510   -5.2780 C.3    73  VAL73       0.0023
     70  N         18.4650   14.1780   -6.8920 N.am   74  GLY74      -0.1955
     71  CA        18.7410   14.9760   -8.0750 C.3    74  GLY74       0.1869
     72  C         18.1540   14.4120   -9.3620 C.2    74  GLY74       0.2309
     73  O         18.8670   14.2060  -10.3490 O.2    74  GLY74      -0.2863
@<TRIPOS>BOND
     1    73    72    2
     2    72    71    1
     3    24    23   ar
     4    71    70    1
     5    40    39    2
     6    66    65    2
     7    23    25   ar
     8    23    22    1
     9    39    38    1
    10    33    32    2
    11    32    31    1
    12    21    20    2
    13    70    65   am
    14    37    38    1
    15    19    22    1
    16    19    20    1
    17    19    18    1
    18    17    16    2
    19    65    64    1
    20    13    12    2
    21    10    11    1
    22    38    41    1
    23    36    34    1
    24    20    26   am
    25    16    18   am
    26    16    15    1
    27    34    31    1
    28    34    35    1
    29    12    11    1
    30    12    14   am
    31    31    30    1
    32    64    67    1
    33    64    63    1
    34    15    14    1
    35    69    67    1
    36    67    68    1
    37    41    42    1
    38    30    28   am
    39    29    28    2
    40    26    27    1
    41    28    27    1
    42    63    54   am
    43    42    43    1
    44    48    49    1
    45     1     2    1
    46    55    54    2
    47    54    53    1
    48    49    50    1
    49    52    50   am
    50    52    53    1
    51    50    51    2
    52    43    44    1
    53    44    45    2
    54     2     5    1
    55     2     3    1
    56    53    56    1
    57     5     6    1
    58    45    47    1
    59    45    46    1
    60     3     4    2
    61    56    57    1
    62     6     7    1
    63     7     8    1
    64    57    58    1
    65    58    59    1
    66    59    60    2
    67     9     8    1
    68    62    60    1
    69    60    61    1
