@<TRIPOS>MOLECULE
tmp/1z0zA00.pdb
 141 132 0 0 0
SMALL
GASTEIGER

@<TRIPOS>ATOM
      1  N        104.1380   16.8870   78.2300 N.3    49  ASP49      -0.1225
      2  CA       102.8550   17.5690   78.0270 C.3    49  ASP49       0.1805
      3  C        102.9790   18.7200   77.0360 C.2    49  ASP49       0.2598
      4  O        102.1430   18.8780   76.1430 O.2    49  ASP49      -0.2718
      5  CB       102.3460   18.1540   79.3500 C.3    49  ASP49       0.1424
      6  CG       101.7060   17.1220   80.2510 C.2    49  ASP49       0.3668
      7  OD1      101.3470   16.0270   79.7620 O.co2  49  ASP49      -0.2456
      8  OD2      101.5160   17.3410   81.4720 O.co2  49  ASP49      -0.2456
      9  N        104.0150   19.5370   77.2330 N.am   50  GLY50      -0.1957
     10  CA       104.2880   20.6780   76.3780 C.3    50  GLY50       0.1869
     11  C        104.3720   20.2580   74.9290 C.2    50  GLY50       0.2309
     12  O        103.7230   20.8450   74.0690 O.2    50  GLY50      -0.2863
     13  N        100.9820   19.5980   73.3610 N.3    53  LEU53      -0.1231
     14  CA       100.1640   20.7690   73.0590 C.3    53  LEU53       0.1693
     15  C        100.5890   21.3970   71.7400 C.2    53  LEU53       0.2591
     16  O         99.7430   21.8960   71.0080 O.2    53  LEU53      -0.2718
     17  CB       100.2390   21.7960   74.1810 C.3    53  LEU53       0.0284
     18  CG        99.6740   21.2940   75.5010 C.3    53  LEU53       0.0019
     19  CD1      100.1360   22.1630   76.6630 C.3    53  LEU53       0.0001
     20  CD2       98.1550   21.2340   75.4500 C.3    53  LEU53       0.0001
     21  N        101.8900   21.3570   71.4420 N.am   54  ARG54      -0.1980
     22  CA       102.4390   21.9310   70.2080 C.3    54  ARG54       0.1597
     23  C        102.0480   21.0990   68.9910 C.2    54  ARG54       0.2287
     24  O        102.0050   21.6060   67.8570 O.2    54  ARG54      -0.2864
     25  CB       103.9700   22.0040   70.2770 C.3    54  ARG54       0.0334
     26  CG       104.5370   22.8990   71.3900 C.3    54  ARG54       0.0492
     27  CD       105.8530   22.3790   72.0000 C.3    54  ARG54       0.2205
     28  NE       106.7360   23.4510   72.4640 N.pl3  54  ARG54      -0.0865
     29  CZ       106.5340   24.2150   73.5480 C.cat  54  ARG54       0.5346
     30  NH1      105.4630   24.0590   74.3340 N.pl3  54  ARG54       0.1354
     31  NH2      107.4270   25.1550   73.8500 N.pl3  54  ARG54       0.1354
     32  N        107.3090   14.7980   85.2220 N.3    73  VAL73      -0.1245
     33  CA       105.8380   14.6630   85.3300 C.3    73  VAL73       0.1561
     34  C        105.0960   14.9540   84.0210 C.2    73  VAL73       0.2260
     35  O        105.6000   15.6860   83.1680 O.2    73  VAL73      -0.2867
     36  CB       105.2850   15.5760   86.4770 C.3    73  VAL73       0.0252
     37  CG1      103.7430   15.6990   86.4570 C.3    73  VAL73       0.0019
     38  CG2      105.7530   15.0520   87.8380 C.3    73  VAL73       0.0019
     39  N        100.5940   14.7890   82.7330 N.3    75  LEU75      -0.1231
     40  CA        99.1880   14.3480   82.8470 C.3    75  LEU75       0.1693
     41  C         98.5320   13.8620   81.5300 C.2    75  LEU75       0.2591
     42  O         97.5940   13.0530   81.5490 O.2    75  LEU75      -0.2718
     43  CB        98.3420   15.4880   83.4300 C.3    75  LEU75       0.0284
     44  CG        98.2560   15.5310   84.9520 C.3    75  LEU75       0.0019
     45  CD1       99.3470   16.3950   85.5640 C.3    75  LEU75       0.0001
     46  CD2       96.8930   16.0380   85.3510 C.3    75  LEU75       0.0001
     47  N         98.9950   14.3700   80.3960 N.am   76  LEU76      -0.1980
     48  CA        98.3820   14.0100   79.1190 C.3    76  LEU76       0.1596
     49  C         99.0200   12.7610   78.5150 C.2    76  LEU76       0.2287
     50  O         98.4800   12.1920   77.5420 O.2    76  LEU76      -0.2864
     51  CB        98.4670   15.1740   78.1280 C.3    76  LEU76       0.0297
     52  CG        97.9500   16.5360   78.6060 C.3    76  LEU76       0.0022
     53  CD1       97.6070   17.3880   77.3950 C.3    76  LEU76       0.0001
     54  CD2       96.7540   16.4350   79.5410 C.3    76  LEU76       0.0001
     55  N         93.6840   22.8820   76.8990 N.3   115  ASN115     -0.1225
     56  CA        93.8350   23.3140   78.2740 C.3   115  ASN115      0.1785
     57  C         92.9530   24.5100   78.6000 C.2   115  ASN115      0.2597
     58  O         92.0430   24.3960   79.4260 O.2   115  ASN115     -0.2718
     59  CB        95.3020   23.6560   78.5470 C.3   115  ASN115      0.1169
     60  CG        96.1100   22.4560   78.9860 C.2   115  ASN115      0.2627
     61  OD1       95.5620   21.3870   79.2460 O.2   115  ASN115     -0.2716
     62  ND2       97.4220   22.6330   79.0930 N.am  115  ASN115     -0.0877
     63  N         93.2290   25.6500   77.9630 N.am  116  GLU116     -0.1979
     64  CA        92.4380   26.8670   78.1640 C.3   116  GLU116      0.1602
     65  C         92.6270   27.9740   77.1240 C.2   116  GLU116      0.2287
     66  O         93.4760   27.9180   76.2500 O.2   116  GLU116     -0.2864
     67  CB        92.7380   27.4750   79.5390 C.3   116  GLU116      0.0415
     68  CG        94.0000   28.3250   79.6120 C.3   116  GLU116      0.1163
     69  CD        95.2700   27.5000   79.4850 C.2   116  GLU116      0.3649
     70  OE1       95.3910   26.5260   80.2410 O.co2 116  GLU116     -0.2457
     71  OE2       96.1480   27.8260   78.6480 O.co2 116  GLU116     -0.2457
     72  N         90.6150   19.2550   81.3750 N.3   153  ILE153     -0.1231
     73  CA        91.9770   18.7810   81.1320 C.3   153  ILE153      0.1692
     74  C         92.9680   19.8120   81.6370 C.2   153  ILE153      0.2592
     75  O         93.9690   19.4660   82.2560 O.2   153  ILE153     -0.2718
     76  CB        92.2010   18.5270   79.6330 C.3   153  ILE153      0.0266
     77  CG1       91.2980   17.3950   79.1310 C.3   153  ILE153      0.0019
     78  CG2       93.6670   18.2110   79.3630 C.3   153  ILE153      0.0020
     79  CD1       91.4990   16.0800   79.8650 C.3   153  ILE153      0.0001
     80  N         92.6520   21.0760   81.3700 N.am  154  GLY154     -0.1957
     81  CA        93.4570   22.2000   81.7920 C.3   154  GLY154      0.1869
     82  C         93.1060   22.7390   83.1600 C.2   154  GLY154      0.2309
     83  O         93.5390   23.8450   83.5050 O.2   154  GLY154     -0.2863
     84  N         94.2470   21.3670   85.6150 N.3   156  THR156     -0.1203
     85  CA        95.5020   21.0190   86.2880 C.3   156  THR156      0.1994
     86  C         96.6860   21.9280   85.8830 C.2   156  THR156      0.2618
     87  O         97.8010   21.7440   86.3890 O.2   156  THR156     -0.2717
     88  CB        95.8450   19.5100   86.0820 C.3   156  THR156      0.1784
     89  OG1       95.4770   19.0810   84.7660 O.3   156  THR156     -0.2211
     90  CG2       94.9920   18.6460   86.9680 C.3   156  THR156      0.0376
     91  N         96.4210   22.9320   85.0350 N.am  157  GLY157     -0.1942
     92  CA        97.4350   23.8840   84.5880 C.3   157  GLY157      0.2014
     93  C         97.2910   25.2760   85.1800 C.2   157  GLY157      0.2638
     94  O         97.2580   25.4210   86.3820 O.2   157  GLY157     -0.2714
     95  N         97.2080   26.3040   84.3390 N.am  158  TYR158     -0.1973
     96  CA        97.0720   27.6970   84.8100 C.3   158  TYR158      0.1639
     97  C         95.9710   27.8120   85.8810 C.2   158  TYR158      0.2290
     98  O         96.1700   28.3890   86.9440 O.2   158  TYR158     -0.2864
     99  CB        96.7530   28.6470   83.6260 C.3   158  TYR158      0.0560
    100  CG        97.4660   30.0100   83.6000 C.ar  158  TYR158     -0.0198
    101  CD1       97.9330   30.6220   84.7700 C.ar  158  TYR158     -0.0009
    102  CD2       97.6500   30.6940   82.3870 C.ar  158  TYR158     -0.0009
    103  CE1       98.5730   31.8690   84.7400 C.ar  158  TYR158      0.0417
    104  CE2       98.2980   31.9480   82.3440 C.ar  158  TYR158      0.0417
    105  CZ        98.7630   32.5320   83.5300 C.ar  158  TYR158      0.1957
    106  OH        99.4130   33.7600   83.5120 O.3   158  TYR158     -0.2866
    107  N         96.8160   26.8910   89.2340 N.3   161  SER161     -0.1217
    108  CA        97.6480   27.9570   89.8150 C.3   161  SER161      0.1889
    109  C         96.8930   29.2160   90.2740 C.2   161  SER161      0.2288
    110  O         97.4070   30.0010   91.0420 O.2   161  SER161     -0.2866
    111  CB        98.7140   28.3870   88.8080 C.3   161  SER161      0.2089
    112  OG        99.4710   27.2910   88.3450 O.3   161  SER161     -0.2183
    113  N         96.3990   27.5070   74.9920 N.3   209  ASP209     -0.1225
    114  CA        97.4110   26.5880   75.5530 C.3   209  ASP209      0.1805
    115  C         98.8510   27.0990   75.6480 C.2   209  ASP209      0.2598
    116  O         99.7910   26.3180   75.5400 O.2   209  ASP209     -0.2718
    117  CB        97.4180   25.2700   74.7820 C.3   209  ASP209      0.1424
    118  CG        96.0610   24.6480   74.6900 C.2   209  ASP209      0.3668
    119  OD1       95.8680   23.8010   73.7990 O.co2 209  ASP209     -0.2456
    120  OD2       95.1340   24.9400   75.4650 O.co2 209  ASP209     -0.2456
    121  N         99.0180   28.3970   75.8780 N.am  210  GLY210     -0.1942
    122  CA       100.3380   29.0100   75.9740 C.3   210  GLY210      0.2014
    123  C        101.1740   28.8500   74.7160 C.2   210  GLY210      0.2638
    124  O        102.3120   28.3850   74.7930 O.2   210  GLY210     -0.2714
    125  N        100.6200   29.2540   73.5700 N.am  211  GLN211     -0.1977
    126  CA       101.1920   28.9020   72.2730 C.3   211  GLN211      0.1601
    127  C        100.8780   29.8910   71.1560 C.2   211  GLN211      0.2287
    128  O        101.7900   30.3650   70.4910 O.2   211  GLN211     -0.2864
    129  CB       100.7280   27.4990   71.8620 C.3   211  GLN211      0.0394
    130  CG       101.8730   26.5520   71.5030 C.3   211  GLN211      0.0908
    131  CD       102.4750   25.9070   72.7240 C.2   211  GLN211      0.2608
    132  OE1      103.6090   26.2130   73.1160 O.2   211  GLN211     -0.2717
    133  NE2      101.7170   25.0220   73.3400 N.am  211  GLN211     -0.0878
    134  N        102.8810   18.5260   91.6380 N.3   248  ILE248     -0.1245
    135  CA       103.1230   19.5760   90.6390 C.3   248  ILE248      0.1561
    136  C        104.1320   20.5980   91.1940 C.2   248  ILE248      0.2260
    137  O        103.9240   21.1280   92.2890 O.2   248  ILE248     -0.2867
    138  CB       101.7900   20.2610   90.2530 C.3   248  ILE248      0.0252
    139  CG1      101.0220   19.3790   89.2600 C.3   248  ILE248      0.0019
    140  CG2      102.0420   21.6420   89.6640 C.3   248  ILE248      0.0019
    141  CD1       99.5820   19.7870   89.0380 C.3   248  ILE248      0.0001
@<TRIPOS>BOND
     1    24    23    2
     2    23    22    1
     3    22    25    1
     4    22    21    1
     5    25    26    1
     6   128   127    2
     7    16    15    2
     8   127   126    1
     9    26    27    1
    10    21    15   am
    11   130   129    1
    12   130   131    1
    13    15    14    1
    14   129   126    1
    15    27    28    1
    16   126   125    1
    17    28    29    2
    18   131   132    2
    19   131   133   am
    20    14    13    1
    21    14    17    1
    22    29    31    1
    23    29    30    1
    24   125   123   am
    25   119   118   ar
    26    12    11    2
    27    17    18    1
    28   118   117    1
    29   118   120   ar
    30   123   124    2
    31   123   122    1
    32   117   114    1
    33    11    10    1
    34   113   114    1
    35    20    18    1
    36    18    19    1
    37   116   115    2
    38   114   115    1
    39   115   121   am
    40   121   122    1
    41     4     3    2
    42    66    65    2
    43    10     9    1
    44    55    56    1
    45     3     9   am
    46     3     2    1
    47    65    64    1
    48    53    52    1
    49    50    49    2
    50    63    64    1
    51    63    57   am
    52     2     1    1
    53     2     5    1
    54    51    52    1
    55    51    48    1
    56    64    67    1
    57    56    59    1
    58    56    57    1
    59    49    48    1
    60    59    60    1
    61    57    58    2
    62    52    54    1
    63    71    69   ar
    64    60    62   am
    65    60    61    2
    66    48    47    1
    67    77    76    1
    68    77    79    1
    69     5     6    1
    70    78    76    1
    71    69    68    1
    72    69    70   ar
    73    67    68    1
    74    76    73    1
    75     7     6   ar
    76     6     8   ar
    77    47    41   am
    78    73    72    1
    79    73    74    1
    80    80    74   am
    81    80    81    1
    82    41    42    2
    83    41    40    1
    84    74    75    2
    85    81    82    1
    86   104   102   ar
    87   104   105   ar
    88   102   100   ar
    89    39    40    1
    90    40    43    1
    91    82    83    2
    92    35    34    2
    93    43    44    1
    94   106   105    1
    95   105   103   ar
    96   100    99    1
    97   100   101   ar
    98    99    96    1
    99    34    33    1
   100    95    96    1
   101    95    93   am
   102    92    91    1
   103    92    93    1
   104   103   101   ar
   105    89    88    1
   106    96    97    1
   107    44    46    1
   108    44    45    1
   109    91    86   am
   110    93    94    2
   111    32    33    1
   112    33    36    1
   113    84    85    1
   114    97    98    2
   115    86    85    1
   116    86    87    2
   117    88    85    1
   118    88    90    1
   119    37    36    1
   120    36    38    1
   121   112   111    1
   122   111   108    1
   123   141   139    1
   124   107   108    1
   125   139   138    1
   126   140   138    1
   127   108   109    1
   128   138   135    1
   129   109   110    2
   130   135   136    1
   131   135   134    1
   132   136   137    2
