@<TRIPOS>MOLECULE
tmp/1z10A01.pdb
 111 105 0 0 0
SMALL
GASTEIGER

@<TRIPOS>ATOM
      1  N         57.2430   72.3640   66.5050 N.3    78  PHE78      -0.1241
      2  CA        58.1480   73.4410   66.0810 C.3    78  PHE78       0.1605
      3  C         58.9590   73.9900   67.2400 C.2    78  PHE78       0.2264
      4  O         60.1270   74.3240   67.0330 O.2    78  PHE78      -0.2867
      5  CB        57.3870   74.5710   65.3700 C.3    78  PHE78       0.0534
      6  CG        56.8860   74.1760   64.0170 C.ar   78  PHE78      -0.0203
      7  CD1       55.5340   74.0110   63.7840 C.ar   78  PHE78      -0.0042
      8  CD2       57.7750   73.9140   62.9890 C.ar   78  PHE78      -0.0042
      9  CE1       55.0630   73.5870   62.5630 C.ar   78  PHE78      -0.0003
     10  CE2       57.3370   73.5030   61.7690 C.ar   78  PHE78      -0.0003
     11  CZ        55.9440   73.3290   61.5280 C.ar   78  PHE78      -0.0000
     12  N         62.7840   75.5290   67.7800 N.3    82  PHE82      -0.1241
     13  CA        62.8700   76.9690   68.0560 C.3    82  PHE82       0.1605
     14  C         63.1050   77.3690   69.4810 C.2    82  PHE82       0.2264
     15  O         63.7540   78.3920   69.7340 O.2    82  PHE82      -0.2867
     16  CB        61.6450   77.7310   67.4780 C.3    82  PHE82       0.0534
     17  CG        61.5290   77.6000   65.9950 C.ar   82  PHE82      -0.0203
     18  CD1       60.4630   76.9200   65.4040 C.ar   82  PHE82      -0.0042
     19  CD2       62.5440   78.0830   65.1660 C.ar   82  PHE82      -0.0042
     20  CE1       60.4010   76.7140   64.0080 C.ar   82  PHE82      -0.0003
     21  CE2       62.4980   77.9000   63.7840 C.ar   82  PHE82      -0.0003
     22  CZ        61.4220   77.2090   63.1860 C.ar   82  PHE82      -0.0000
     23  N         58.6770   83.8150   64.7460 N.3    88  VAL88      -0.1231
     24  CA        57.3520   83.2140   64.8510 C.3    88  VAL88       0.1692
     25  C         56.9530   82.7420   66.2480 C.2    88  VAL88       0.2592
     26  O         55.9070   83.1080   66.7690 O.2    88  VAL88      -0.2718
     27  CB        57.2270   82.0360   63.8560 C.3    88  VAL88       0.0266
     28  CG1       55.8620   81.3430   64.0350 C.3    88  VAL88       0.0020
     29  CG2       57.4200   82.5210   62.4360 C.3    88  VAL88       0.0020
     30  N         57.8150   81.9620   66.8850 N.am   89  PHE89      -0.1976
     31  CA        57.4780   81.4620   68.1840 C.3    89  PHE89       0.1639
     32  C         57.9270   82.2550   69.3760 C.2    89  PHE89       0.2290
     33  O         57.8540   81.7900   70.5010 O.2    89  PHE89      -0.2864
     34  CB        57.9100   80.0090   68.2560 C.3    89  PHE89       0.0560
     35  CG        57.2080   79.1480   67.2430 C.ar   89  PHE89      -0.0200
     36  CD1       57.8070   78.8400   66.0420 C.ar   89  PHE89      -0.0042
     37  CD2       55.8600   78.7710   67.4420 C.ar   89  PHE89      -0.0042
     38  CE1       57.1030   78.1930   65.0210 C.ar   89  PHE89      -0.0003
     39  CE2       55.1530   78.1320   66.4460 C.ar   89  PHE89      -0.0003
     40  CZ        55.7620   77.8380   65.2190 C.ar   89  PHE89      -0.0000
     41  N         55.4720   69.3280   57.8580 N.3   180  PHE180     -0.1241
     42  CA        54.0650   69.7660   57.7660 C.3   180  PHE180      0.1605
     43  C         53.1880   68.5000   57.7750 C.2   180  PHE180      0.2264
     44  O         52.1140   68.4790   58.3570 O.2   180  PHE180     -0.2867
     45  CB        53.7900   70.5510   56.4890 C.3   180  PHE180      0.0534
     46  CG        53.8160   72.0530   56.6770 C.ar  180  PHE180     -0.0203
     47  CD1       54.9080   72.6720   57.2830 C.ar  180  PHE180     -0.0042
     48  CD2       52.7390   72.8370   56.2440 C.ar  180  PHE180     -0.0042
     49  CE1       54.9430   74.0910   57.4750 C.ar  180  PHE180     -0.0003
     50  CE2       52.7560   74.2420   56.4360 C.ar  180  PHE180     -0.0003
     51  CZ        53.8740   74.8440   57.0570 C.ar  180  PHE180     -0.0000
     52  N         62.4830   80.2160   60.2150 N.3   268  ASN268     -0.1240
     53  CA        61.0390   80.5170   60.1570 C.3   268  ASN268      0.1653
     54  C         60.6400   81.0210   58.7420 C.2   268  ASN268      0.2266
     55  O         59.6290   80.6100   58.1710 O.2   268  ASN268     -0.2867
     56  CB        60.6800   81.6780   61.0990 C.3   268  ASN268      0.1155
     57  CG        60.6950   81.3210   62.5890 C.2   268  ASN268      0.2627
     58  OD1       60.8850   82.2230   63.4220 O.2   268  ASN268     -0.2716
     59  ND2       60.4210   80.0350   62.9500 N.am  268  ASN268     -0.0877
     60  N         60.9420   78.1310   56.0300 N.3   271  ILE271     -0.1231
     61  CA        59.8130   77.1880   56.1080 C.3   271  ILE271      0.1692
     62  C         58.4750   77.9240   55.8280 C.2   271  ILE271      0.2592
     63  O         57.6380   77.5070   55.0170 O.2   271  ILE271     -0.2718
     64  CB        59.7350   76.5460   57.5400 C.3   271  ILE271      0.0266
     65  CG1       61.0060   75.7240   57.8120 C.3   271  ILE271      0.0019
     66  CG2       58.4390   75.6850   57.6640 C.3   271  ILE271      0.0020
     67  CD1       61.1430   75.1860   59.2510 C.3   271  ILE271      0.0001
     68  N         58.2420   79.0230   56.5250 N.am  272  GLY272     -0.1957
     69  CA        56.9750   79.7340   56.2950 C.3   272  GLY272      0.1869
     70  C         56.7170   80.2170   54.8890 C.2   272  GLY272      0.2309
     71  O         55.5750   80.2440   54.3980 O.2   272  GLY272     -0.2863
     72  N         53.7490   76.7200   53.0130 N.3   276  THR276     -0.1218
     73  CA        52.3920   77.2270   52.9750 C.3   276  THR276      0.1862
     74  C         51.9810   77.5110   51.5280 C.2   276  THR276      0.2287
     75  O         50.9680   77.0110   51.0760 O.2   276  THR276     -0.2866
     76  CB        52.2220   78.5420   53.8020 C.3   276  THR276      0.1770
     77  OG1       53.1720   79.4960   53.3550 O.3   276  THR276     -0.2211
     78  CG2       52.4770   78.2970   55.2610 C.3   276  THR276      0.0375
     79  N         46.1720   76.2760   57.1140 N.3   337  ILE337     -0.1245
     80  CA        46.5970   76.3110   58.5270 C.3   337  ILE337      0.1561
     81  C         45.2490   76.4100   59.2000 C.2   337  ILE337      0.2260
     82  O         44.8260   77.4930   59.6100 O.2   337  ILE337     -0.2867
     83  CB        47.4490   77.5610   58.8430 C.3   337  ILE337      0.0252
     84  CG1       48.5920   77.6600   57.8480 C.3   337  ILE337      0.0019
     85  CG2       47.9550   77.4960   60.2670 C.3   337  ILE337      0.0019
     86  CD1       49.6610   76.5260   57.9440 C.3   337  ILE337      0.0001
     87  N         48.1630   79.5660   64.1570 N.3   341  LEU341     -0.1245
     88  CA        49.2760   79.3170   65.0500 C.3   341  LEU341      0.1561
     89  C         48.6330   79.8140   66.3460 C.2   341  LEU341      0.2260
     90  O         47.9920   80.8910   66.3610 O.2   341  LEU341     -0.2867
     91  CB        50.4670   80.2050   64.6720 C.3   341  LEU341      0.0270
     92  CG        51.8990   79.7120   64.9200 C.3   341  LEU341      0.0019
     93  CD1       52.0710   78.2130   64.5890 C.3   341  LEU341      0.0001
     94  CD2       52.8370   80.5560   64.0580 C.3   341  LEU341      0.0001
     95  N         50.0090   87.0000   59.7080 N.3   410  CYS410     -0.1235
     96  CA        51.0740   86.7050   58.7560 C.3   410  CYS410      0.1677
     97  C         51.7000   87.9370   58.1050 C.2   410  CYS410      0.2270
     98  O         51.0190   88.6490   57.4060 O.2   410  CYS410     -0.2867
     99  CB        50.5240   85.8080   57.6500 C.3   410  CYS410      0.0956
    100  SG        51.7390   85.2930   56.4660 S.3   410  CYS410     -0.0801
    101  N         47.8480   70.4020   62.2430 N.3   451  PHE451     -0.1241
    102  CA        48.4270   71.7560   62.1700 C.3   451  PHE451      0.1605
    103  C         48.1770   72.3880   60.7650 C.2   451  PHE451      0.2264
    104  O         47.8990   73.6110   60.6200 O.2   451  PHE451     -0.2867
    105  CB        49.9400   71.7040   62.4070 C.3   451  PHE451      0.0534
    106  CG        50.6000   73.0240   62.1620 C.ar  451  PHE451     -0.0203
    107  CD1       50.3330   74.0720   63.0080 C.ar  451  PHE451     -0.0042
    108  CD2       51.4100   73.2110   61.0580 C.ar  451  PHE451     -0.0042
    109  CE1       50.8770   75.3680   62.7510 C.ar  451  PHE451     -0.0003
    110  CE2       51.9870   74.4980   60.7700 C.ar  451  PHE451     -0.0003
    111  CZ        51.7060   75.5680   61.6210 C.ar  451  PHE451     -0.0000
@<TRIPOS>BOND
     1    75    74    2
     2    74    73    1
     3    73    72    1
     4    73    76    1
     5    77    76    1
     6    76    78    1
     7    71    70    2
     8    70    69    1
     9    63    62    2
    10    62    61    1
    11    62    68   am
    12    60    61    1
    13    61    64    1
    14    48    50   ar
    15    48    46   ar
    16    69    68    1
    17    50    51   ar
    18   100    99    1
    19    45    46    1
    20    45    42    1
    21    46    47   ar
    22    51    49   ar
    23    79    80    1
    24    47    49   ar
    25    98    97    2
    26    64    66    1
    27    64    65    1
    28    99    96    1
    29    42    43    1
    30    42    41    1
    31    43    44    2
    32    65    67    1
    33    84    86    1
    34    84    83    1
    35    97    96    1
    36    55    54    2
    37    80    83    1
    38    80    81    1
    39    54    53    1
    40    96    95    1
    41    83    85    1
    42    81    82    2
    43    53    52    1
    44    53    56    1
    45   104   103    2
    46   103   102    1
    47   110   108   ar
    48   110   111   ar
    49   108   106   ar
    50    56    57    1
    51    11    10   ar
    52    11     9   ar
    53   111   109   ar
    54    10     8   ar
    55   106   105    1
    56   106   107   ar
    57   102   101    1
    58   102   105    1
    59    29    27    1
    60     9     7   ar
    61    57    59   am
    62    57    58    2
    63   109   107   ar
    64     8     6   ar
    65    22    21   ar
    66    22    20   ar
    67    21    19   ar
    68     7     6   ar
    69    27    28    1
    70    27    24    1
    71    20    18   ar
    72     6     5    1
    73    94    92    1
    74    87    88    1
    75    93    92    1
    76    91    92    1
    77    91    88    1
    78    23    24    1
    79    24    25    1
    80    38    40   ar
    81    38    36   ar
    82    88    89    1
    83    19    17   ar
    84    40    39   ar
    85     5     2    1
    86    18    17   ar
    87    17    16    1
    88    36    35   ar
    89     2     1    1
    90     2     3    1
    91    25    26    2
    92    25    30   am
    93    89    90    2
    94    39    37   ar
    95    30    31    1
    96     4     3    2
    97    35    37   ar
    98    35    34    1
    99    16    13    1
   100    12    13    1
   101    13    14    1
   102    31    34    1
   103    31    32    1
   104    32    33    2
   105    14    15    2
