@<TRIPOS>MOLECULE
tmp/1z11A01.pdb
 119 113 0 0 0
SMALL
GASTEIGER

@<TRIPOS>ATOM
      1  N         57.4230   72.4050   66.2390 N.3    78  PHE78      -0.1241
      2  CA        58.3510   73.4860   65.8740 C.3    78  PHE78       0.1605
      3  C         59.1530   74.0660   67.0410 C.2    78  PHE78       0.2264
      4  O         60.3210   74.4270   66.8680 O.2    78  PHE78      -0.2867
      5  CB        57.6270   74.5830   65.1100 C.3    78  PHE78       0.0534
      6  CG        57.0760   74.1200   63.8040 C.ar   78  PHE78      -0.0203
      7  CD1       55.7070   73.9910   63.6180 C.ar   78  PHE78      -0.0042
      8  CD2       57.9220   73.8200   62.7480 C.ar   78  PHE78      -0.0042
      9  CE1       55.1860   73.5700   62.3850 C.ar   78  PHE78      -0.0003
     10  CE2       57.4150   73.4020   61.5230 C.ar   78  PHE78      -0.0003
     11  CZ        56.0340   73.2790   61.3440 C.ar   78  PHE78      -0.0000
     12  N         63.1280   75.6140   67.5130 N.3    82  PHE82      -0.1241
     13  CA        63.1650   77.0490   67.7940 C.3    82  PHE82       0.1605
     14  C         63.3410   77.4630   69.2440 C.2    82  PHE82       0.2264
     15  O         64.0100   78.4600   69.5430 O.2    82  PHE82      -0.2867
     16  CB        61.9130   77.7070   67.1930 C.3    82  PHE82       0.0534
     17  CG        61.8390   77.5660   65.7220 C.ar   82  PHE82      -0.0203
     18  CD1       60.7340   76.9850   65.1100 C.ar   82  PHE82      -0.0042
     19  CD2       62.9120   77.9640   64.9280 C.ar   82  PHE82      -0.0042
     20  CE1       60.7090   76.7990   63.7240 C.ar   82  PHE82      -0.0003
     21  CE2       62.8890   77.7780   63.5320 C.ar   82  PHE82      -0.0003
     22  CZ        61.7900   77.1970   62.9400 C.ar   82  PHE82      -0.0000
     23  N         58.9080   83.8140   64.5510 N.3    88  VAL88      -0.1231
     24  CA        57.5800   83.1970   64.6190 C.3    88  VAL88       0.1692
     25  C         57.1280   82.7750   65.9920 C.2    88  VAL88       0.2592
     26  O         56.0750   83.1800   66.4620 O.2    88  VAL88      -0.2718
     27  CB        57.5200   81.9710   63.7030 C.3    88  VAL88       0.0266
     28  CG1       56.1470   81.2480   63.8320 C.3    88  VAL88       0.0020
     29  CG2       57.7660   82.4140   62.3080 C.3    88  VAL88       0.0020
     30  N         57.9420   81.9480   66.6360 N.am   89  PHE89      -0.1976
     31  CA        57.5950   81.4040   67.9370 C.3    89  PHE89       0.1639
     32  C         58.1750   82.1790   69.0930 C.2    89  PHE89       0.2290
     33  O         58.4080   81.6320   70.1540 O.2    89  PHE89      -0.2864
     34  CB        58.0070   79.9090   67.9860 C.3    89  PHE89       0.0560
     35  CG        57.3670   79.0850   66.8910 C.ar   89  PHE89      -0.0200
     36  CD1       58.0430   78.8090   65.7230 C.ar   89  PHE89      -0.0042
     37  CD2       56.0280   78.7130   66.9880 C.ar   89  PHE89      -0.0042
     38  CE1       57.3960   78.1770   64.6370 C.ar   89  PHE89      -0.0003
     39  CE2       55.3700   78.0900   65.9340 C.ar   89  PHE89      -0.0003
     40  CZ        56.0470   77.8180   64.7520 C.ar   89  PHE89      -0.0000
     41  N         55.7390   69.4030   57.6010 N.3   180  PHE180     -0.1241
     42  CA        54.3430   69.8310   57.4870 C.3   180  PHE180      0.1605
     43  C         53.4530   68.5850   57.5150 C.2   180  PHE180      0.2264
     44  O         52.3860   68.6020   58.1150 O.2   180  PHE180     -0.2867
     45  CB        54.1000   70.6240   56.1900 C.3   180  PHE180      0.0534
     46  CG        54.0080   72.1240   56.3940 C.ar  180  PHE180     -0.0203
     47  CD1       55.0020   72.8150   57.0720 C.ar  180  PHE180     -0.0042
     48  CD2       52.9140   72.8390   55.9000 C.ar  180  PHE180     -0.0042
     49  CE1       54.9200   74.1930   57.2690 C.ar  180  PHE180     -0.0003
     50  CE2       52.8140   74.2250   56.0880 C.ar  180  PHE180     -0.0003
     51  CZ        53.8200   74.9020   56.7760 C.ar  180  PHE180     -0.0000
     52  N         62.7320   80.3190   60.0030 N.3   268  ASN268     -0.1225
     53  CA        61.3050   80.6390   60.0050 C.3   268  ASN268      0.1785
     54  C         60.8580   81.0660   58.6080 C.2   268  ASN268      0.2597
     55  O         59.8370   80.6040   58.1030 O.2   268  ASN268     -0.2718
     56  CB        61.0020   81.8110   60.9520 C.3   268  ASN268      0.1169
     57  CG        60.9250   81.4050   62.3910 C.2   268  ASN268      0.2627
     58  OD1       61.0530   82.2460   63.2880 O.2   268  ASN268     -0.2716
     59  ND2       60.6860   80.1060   62.6420 N.am  268  ASN268     -0.0877
     60  N         61.6120   81.9730   57.9910 N.am  269  LEU269     -0.1980
     61  CA        61.2490   82.4890   56.6700 C.3   269  LEU269      0.1596
     62  C         61.4680   81.4890   55.5400 C.2   269  LEU269      0.2287
     63  O         60.6700   81.4040   54.6040 O.2   269  LEU269     -0.2864
     64  CB        62.0260   83.7810   56.3750 C.3   269  LEU269      0.0297
     65  CG        61.8100   84.9900   57.3140 C.3   269  LEU269      0.0022
     66  CD1       62.7270   86.1380   56.8460 C.3   269  LEU269      0.0001
     67  CD2       60.3650   85.4350   57.3200 C.3   269  LEU269      0.0001
     68  N         61.2500   78.2280   55.7140 N.3   271  ILE271     -0.1231
     69  CA        60.1400   77.2550   55.7960 C.3   271  ILE271      0.1692
     70  C         58.8020   77.9490   55.5190 C.2   271  ILE271      0.2592
     71  O         58.0060   77.5270   54.6620 O.2   271  ILE271     -0.2718
     72  CB        60.0880   76.5910   57.2160 C.3   271  ILE271      0.0266
     73  CG1       61.3280   75.7280   57.4340 C.3   271  ILE271      0.0019
     74  CG2       58.8140   75.7490   57.3990 C.3   271  ILE271      0.0020
     75  CD1       61.4140   75.1710   58.8620 C.3   271  ILE271      0.0001
     76  N         58.5640   79.0320   56.2400 N.am  272  GLY272     -0.1957
     77  CA        57.3170   79.7510   56.0700 C.3   272  GLY272      0.1869
     78  C         57.0750   80.2250   54.6670 C.2   272  GLY272      0.2309
     79  O         55.9680   80.0920   54.1400 O.2   272  GLY272     -0.2863
     80  N         53.9160   76.7520   52.7660 N.3   276  THR276     -0.1218
     81  CA        52.5450   77.2710   52.7080 C.3   276  THR276      0.1862
     82  C         52.1410   77.5750   51.2620 C.2   276  THR276      0.2287
     83  O         51.1210   77.0810   50.7740 O.2   276  THR276     -0.2866
     84  CB        52.4000   78.5490   53.5590 C.3   276  THR276      0.1770
     85  OG1       53.4220   79.4900   53.1980 O.3   276  THR276     -0.2211
     86  CG2       52.5310   78.2080   55.0390 C.3   276  THR276      0.0375
     87  N         46.3770   76.3330   56.8330 N.3   337  ILE337     -0.1245
     88  CA        46.7420   76.3290   58.2580 C.3   337  ILE337      0.1561
     89  C         45.4130   76.4550   58.9840 C.2   337  ILE337      0.2260
     90  O         45.0720   77.5170   59.4830 O.2   337  ILE337     -0.2867
     91  CB        47.6290   77.5130   58.6040 C.3   337  ILE337      0.0252
     92  CG1       48.7980   77.5770   57.6220 C.3   337  ILE337      0.0019
     93  CG2       48.1500   77.3680   60.0230 C.3   337  ILE337      0.0019
     94  CD1       49.8320   76.4350   57.7730 C.3   337  ILE337      0.0001
     95  N         48.4200   79.5750   63.9550 N.3   341  LEU341     -0.1245
     96  CA        49.5110   79.2890   64.8700 C.3   341  LEU341      0.1561
     97  C         48.9070   79.7930   66.1780 C.2   341  LEU341      0.2260
     98  O         48.3340   80.8810   66.2050 O.2   341  LEU341     -0.2867
     99  CB        50.7540   80.1090   64.5300 C.3   341  LEU341      0.0270
    100  CG        51.7760   79.3660   63.6680 C.3   341  LEU341      0.0019
    101  CD1       51.0790   78.7800   62.4860 C.3   341  LEU341      0.0001
    102  CD2       52.8540   80.3050   63.1970 C.3   341  LEU341      0.0001
    103  N         50.2750   87.0040   59.6280 N.3   410  CYS410     -0.1235
    104  CA        51.3000   86.6890   58.6490 C.3   410  CYS410      0.1677
    105  C         51.8120   87.9120   57.8900 C.2   410  CYS410      0.2270
    106  O         51.0900   88.4920   57.0840 O.2   410  CYS410     -0.2867
    107  CB        50.7670   85.6820   57.6400 C.3   410  CYS410      0.0956
    108  SG        51.9300   85.3170   56.3090 S.3   410  CYS410     -0.0801
    109  N         48.0980   70.4520   61.9300 N.3   451  PHE451     -0.1241
    110  CA        48.6520   71.7880   61.9140 C.3   451  PHE451      0.1605
    111  C         48.3940   72.3760   60.5170 C.2   451  PHE451      0.2264
    112  O         48.0760   73.5660   60.3690 O.2   451  PHE451     -0.2867
    113  CB        50.1520   71.7470   62.1630 C.3   451  PHE451      0.0534
    114  CG        50.8420   73.0560   61.8640 C.ar  451  PHE451     -0.0203
    115  CD1       50.6510   74.1480   62.6990 C.ar  451  PHE451     -0.0042
    116  CD2       51.6020   73.2030   60.7110 C.ar  451  PHE451     -0.0042
    117  CE1       51.2090   75.3940   62.3810 C.ar  451  PHE451     -0.0003
    118  CE2       52.1750   74.4370   60.3690 C.ar  451  PHE451     -0.0003
    119  CZ        51.9740   75.5320   61.2060 C.ar  451  PHE451     -0.0000
@<TRIPOS>BOND
     1    83    82    2
     2    82    81    1
     3    81    80    1
     4    81    84    1
     5    85    84    1
     6    84    86    1
     7    79    78    2
     8    63    62    2
     9    71    70    2
    10    78    77    1
    11    70    69    1
    12    70    76   am
    13    62    61    1
    14    68    69    1
    15    69    72    1
    16    48    50   ar
    17    48    46   ar
    18    77    76    1
    19    50    51   ar
    20    45    46    1
    21    45    42    1
    22   108   107    1
    23    64    61    1
    24    64    65    1
    25    46    47   ar
    26    61    60    1
    27    51    49   ar
    28    87    88    1
    29    66    65    1
    30    47    49   ar
    31   106   105    2
    32    72    74    1
    33    72    73    1
    34    65    67    1
    35    73    75    1
    36    42    43    1
    37    42    41    1
    38    43    44    2
    39    92    94    1
    40    92    91    1
    41   107   104    1
    42   105   104    1
    43    60    54   am
    44    55    54    2
    45    88    91    1
    46    88    89    1
    47    91    93    1
    48    54    53    1
    49   104   103    1
    50    89    90    2
    51    52    53    1
    52    53    56    1
    53   112   111    2
    54   118   116   ar
    55   118   119   ar
    56   111   110    1
    57   116   114   ar
    58    56    57    1
    59   119   117   ar
    60    11    10   ar
    61    11     9   ar
    62    10     8   ar
    63   114   113    1
    64   114   115   ar
    65   110   109    1
    66   110   113    1
    67    29    27    1
    68   117   115   ar
    69     9     7   ar
    70    57    59   am
    71    57    58    2
    72   101   100    1
    73     8     6   ar
    74    22    21   ar
    75    22    20   ar
    76   102   100    1
    77    21    19   ar
    78     7     6   ar
    79   100    99    1
    80    27    28    1
    81    27    24    1
    82    20    18   ar
    83     6     5    1
    84    95    96    1
    85    99    96    1
    86    23    24    1
    87    24    25    1
    88    38    40   ar
    89    38    36   ar
    90    40    39   ar
    91    96    97    1
    92    19    17   ar
    93    18    17   ar
    94     5     2    1
    95    17    16    1
    96    36    35   ar
    97     2     1    1
    98     2     3    1
    99    39    37   ar
   100    25    26    2
   101    25    30   am
   102    97    98    2
   103    30    31    1
   104     4     3    2
   105    35    37   ar
   106    35    34    1
   107    16    13    1
   108    12    13    1
   109    13    14    1
   110    31    34    1
   111    31    32    1
   112    32    33    2
   113    14    15    2
