@<TRIPOS>MOLECULE
tmp/1z16A00.pdb
 97 94 0 0 0
SMALL
GASTEIGER

@<TRIPOS>ATOM
      1  N         44.0130  -42.6750  -13.6670 N.3    18  TYR18      -0.1241
      2  CA        44.4590  -41.6470  -12.7410 C.3    18  TYR18       0.1605
      3  C         44.1160  -40.2560  -13.2800 C.2    18  TYR18       0.2264
      4  O         43.6670  -39.3940  -12.5380 O.2    18  TYR18      -0.2867
      5  CB        45.9640  -41.7460  -12.4840 C.3    18  TYR18       0.0534
      6  CG        46.4440  -43.0890  -11.9470 C.ar   18  TYR18      -0.0201
      7  CD1       45.6600  -43.8560  -11.0850 C.ar   18  TYR18      -0.0009
      8  CD2       47.7120  -43.5480  -12.2610 C.ar   18  TYR18      -0.0009
      9  CE1       46.1330  -45.0600  -10.5490 C.ar   18  TYR18       0.0417
     10  CE2       48.2060  -44.7470  -11.7310 C.ar   18  TYR18       0.0417
     11  CZ        47.4120  -45.4950  -10.8870 C.ar   18  TYR18       0.1957
     12  OH        47.9010  -46.6830  -10.4270 O.3    18  TYR18      -0.2866
     13  N         51.1600  -36.5880  -11.8550 N.3    77  LEU77      -0.1231
     14  CA        50.6280  -37.6410  -11.0080 C.3    77  LEU77       0.1693
     15  C         51.5990  -38.7160  -10.5790 C.2    77  LEU77       0.2592
     16  O         51.6980  -38.9950   -9.3950 O.2    77  LEU77      -0.2718
     17  CB        49.3880  -38.2800  -11.6510 C.3    77  LEU77       0.0284
     18  CG        48.2120  -37.3720  -12.0620 C.3    77  LEU77       0.0019
     19  CD1       47.1110  -38.2060  -12.7280 C.3    77  LEU77       0.0001
     20  CD2       47.6750  -36.5990  -10.8690 C.3    77  LEU77       0.0001
     21  N         52.2090  -39.3990  -11.5420 N.am   78  CYS78      -0.1956
     22  CA        53.1920  -40.4250  -11.2120 C.3    78  CYS78       0.1843
     23  C         54.5010  -39.8110  -10.7500 C.2    78  CYS78       0.2626
     24  O         54.9320  -38.7940  -11.2730 O.2    78  CYS78      -0.2714
     25  CB        53.4240  -41.3460  -12.4160 C.3    78  CYS78       0.0997
     26  SG        51.9450  -42.3120  -12.8600 S.3    78  CYS78      -0.0797
     27  N         55.1460  -40.4370   -9.7710 N.am   79  SER79      -0.1950
     28  CA        56.3900  -39.8810   -9.2540 C.3    79  SER79       0.1924
     29  C         57.4880  -39.7620  -10.3110 C.2    79  SER79       0.2314
     30  O         58.1760  -38.7520  -10.3690 O.2    79  SER79      -0.2863
     31  CB        56.9080  -40.7260   -8.0700 C.3    79  SER79       0.2116
     32  OG        56.1480  -40.4820   -6.8930 O.3    79  SER79      -0.2180
     33  N         48.9830  -36.2390   -6.3390 N.3   100  ALA100     -0.1231
     34  CA        49.1610  -37.6950   -6.2730 C.3   100  ALA100      0.1694
     35  C         50.5620  -38.2860   -6.1440 C.2   100  ALA100      0.2592
     36  O         50.6800  -39.4290   -5.7420 O.2   100  ALA100     -0.2718
     37  CB        48.4950  -38.3380   -7.4690 C.3   100  ALA100      0.0304
     38  N         51.6140  -37.5470   -6.4940 N.am  101  ALA101     -0.1966
     39  CA        52.9690  -38.1200   -6.4120 C.3   101  ALA101      0.1728
     40  C         53.3720  -38.2730   -4.9670 C.2   101  ALA101      0.2616
     41  O         53.3780  -37.2990   -4.2080 O.2   101  ALA101     -0.2715
     42  CB        53.9640  -37.2440   -7.1510 C.3   101  ALA101      0.0334
     43  N         53.7620  -39.4890   -4.6100 N.am  102  THR102     -0.1951
     44  CA        54.0960  -39.8440   -3.2330 C.3   102  THR102      0.1897
     45  C         55.5540  -40.1560   -2.8700 C.2   102  THR102      0.2313
     46  O         55.8590  -40.3190   -1.6790 O.2   102  THR102     -0.2863
     47  CB        53.2450  -41.0750   -2.8120 C.3   102  THR102      0.1794
     48  OG1       53.4230  -42.1010   -3.7860 O.3   102  THR102     -0.2208
     49  CG2       51.7540  -40.7200   -2.7040 C.3   102  THR102      0.0378
     50  N         57.8900  -45.2680   -8.0680 N.3   150  TYR150     -0.1241
     51  CA        56.8770  -45.4440   -7.0390 C.3   150  TYR150      0.1605
     52  C         56.8530  -46.8470   -6.4400 C.2   150  TYR150      0.2264
     53  O         57.0140  -47.0220   -5.2270 O.2   150  TYR150     -0.2867
     54  CB        55.5080  -45.1320   -7.6440 C.3   150  TYR150      0.0534
     55  CG        54.3250  -45.5320   -6.7950 C.ar  150  TYR150     -0.0201
     56  CD1       53.9860  -44.8130   -5.6470 C.ar  150  TYR150     -0.0009
     57  CD2       53.4760  -46.5450   -7.2170 C.ar  150  TYR150     -0.0009
     58  CE1       52.8080  -45.0860   -4.9550 C.ar  150  TYR150      0.0417
     59  CE2       52.2830  -46.8330   -6.5300 C.ar  150  TYR150      0.0417
     60  CZ        51.9630  -46.0900   -5.4100 C.ar  150  TYR150      0.1957
     61  OH        50.7710  -46.3050   -4.7740 O.3   150  TYR150     -0.2866
     62  N         51.2730  -50.1930   -9.9330 N.3   202  TYR202     -0.1241
     63  CA        49.9740  -49.6860  -10.3470 C.3   202  TYR202      0.1605
     64  C         48.9600  -50.8000  -10.6790 C.2   202  TYR202      0.2264
     65  O         49.3140  -51.9830  -10.8010 O.2   202  TYR202     -0.2867
     66  CB        50.1630  -48.7500  -11.5520 C.3   202  TYR202      0.0534
     67  CG        51.1450  -47.6070  -11.3020 C.ar  202  TYR202     -0.0201
     68  CD1       51.0240  -46.7770  -10.1740 C.ar  202  TYR202     -0.0009
     69  CD2       52.1630  -47.3360  -12.2020 C.ar  202  TYR202     -0.0009
     70  CE1       51.9070  -45.6930   -9.9550 C.ar  202  TYR202      0.0417
     71  CE2       53.0600  -46.2380  -11.9940 C.ar  202  TYR202      0.0417
     72  CZ        52.9160  -45.4290  -10.8750 C.ar  202  TYR202      0.1957
     73  OH        53.7500  -44.3350  -10.7230 O.3   202  TYR202     -0.2866
     74  N         48.0960  -47.2840   -2.5910 N.3   226  GLU226     -0.1231
     75  CA        46.9450  -46.5580   -3.1210 C.3   226  GLU226      0.1699
     76  C         46.7900  -46.6010   -4.6440 C.2   226  GLU226      0.2592
     77  O         45.6770  -46.4490   -5.1640 O.2   226  GLU226     -0.2718
     78  CB        46.9090  -45.1080   -2.5440 C.3   226  GLU226      0.0402
     79  CG        47.2970  -43.9580   -3.4880 C.3   226  GLU226      0.1161
     80  CD        48.7840  -43.8830   -3.8200 C.2   226  GLU226      0.3649
     81  OE1       49.1390  -43.0150   -4.6400 O.co2 226  GLU226     -0.2457
     82  OE2       49.5870  -44.6730   -3.2780 O.co2 226  GLU226     -0.2457
     83  N         47.8910  -46.8620   -5.3500 N.am  227  GLY227     -0.1957
     84  CA        47.8460  -46.9350   -6.7970 C.3   227  GLY227      0.1869
     85  C         47.0460  -48.1020   -7.3560 C.2   227  GLY227      0.2309
     86  O         46.7380  -48.1230   -8.5470 O.2   227  GLY227     -0.2863
     87  N         41.8520  -39.5060   -6.0670 N.3   276  PHE276     -0.1241
     88  CA        42.4250  -38.3510   -6.7390 C.3   276  PHE276      0.1605
     89  C         41.4350  -37.2830   -7.1500 C.2   276  PHE276      0.2264
     90  O         41.8090  -36.1720   -7.5150 O.2   276  PHE276     -0.2867
     91  CB        43.2990  -38.8340   -7.8940 C.3   276  PHE276      0.0534
     92  CG        44.3250  -39.8480   -7.4540 C.ar  276  PHE276     -0.0203
     93  CD1       45.0880  -39.6150   -6.3000 C.ar  276  PHE276     -0.0042
     94  CD2       44.4820  -41.0520   -8.1320 C.ar  276  PHE276     -0.0042
     95  CE1       45.9820  -40.5710   -5.8230 C.ar  276  PHE276     -0.0003
     96  CE2       45.3770  -42.0150   -7.6600 C.ar  276  PHE276     -0.0003
     97  CZ        46.1240  -41.7670   -6.4980 C.ar  276  PHE276     -0.0000
@<TRIPOS>BOND
     1     1     2    1
     2     3     2    1
     3     3     4    2
     4    26    25    1
     5     2     5    1
     6    19    18    1
     7     5     6    1
     8    25    22    1
     9     8     6   ar
    10     8    10   ar
    11    69    71   ar
    12    69    67   ar
    13    18    17    1
    14    18    20    1
    15    71    72   ar
    16     6     7   ar
    17    13    14    1
    18    10    11   ar
    19    17    14    1
    20    66    67    1
    21    66    63    1
    22    21    22    1
    23    21    15   am
    24    67    68   ar
    25    24    23    2
    26    22    23    1
    27     7     9   ar
    28    14    15    1
    29    11     9   ar
    30    11    12    1
    31    72    73    1
    32    72    70   ar
    33    65    64    2
    34    23    27   am
    35    64    63    1
    36    15    16    2
    37    30    29    2
    38    63    62    1
    39    29    28    1
    40    68    70   ar
    41    27    28    1
    42    28    31    1
    43    86    85    2
    44    94    96   ar
    45    94    92   ar
    46    31    32    1
    47    50    51    1
    48    91    92    1
    49    91    88    1
    50    96    97   ar
    51    54    51    1
    52    54    55    1
    53    90    89    2
    54    37    34    1
    55    92    93   ar
    56    85    84    1
    57    57    55   ar
    58    57    59   ar
    59    42    39    1
    60    89    88    1
    61    51    52    1
    62    84    83    1
    63    55    56   ar
    64    88    87    1
    65    59    60   ar
    66    97    95   ar
    67    38    39    1
    68    38    35   am
    69    52    53    2
    70    39    40    1
    71    33    34    1
    72    93    95   ar
    73    34    35    1
    74    35    36    2
    75    56    58   ar
    76    60    58   ar
    77    60    61    1
    78    83    76   am
    79    77    76    2
    80    40    43   am
    81    40    41    2
    82    76    75    1
    83    81    80   ar
    84    43    44    1
    85    80    79    1
    86    80    82   ar
    87    48    47    1
    88    79    78    1
    89    44    45    1
    90    44    47    1
    91    75    74    1
    92    75    78    1
    93    45    46    2
    94    47    49    1
