@<TRIPOS>MOLECULE
tmp/1z17A00.pdb
 97 94 0 0 0
SMALL
GASTEIGER

@<TRIPOS>ATOM
      1  N        -10.3520   70.6840  -23.9020 N.3    18  TYR18      -0.1241
      2  CA        -9.3430   70.1700  -24.8250 C.3    18  TYR18       0.1605
      3  C         -8.7280   68.8830  -24.2620 C.2    18  TYR18       0.2264
      4  O         -8.5820   67.9020  -24.9910 O.2    18  TYR18      -0.2867
      5  CB        -8.2450   71.2180  -25.0670 C.3    18  TYR18       0.0534
      6  CG        -8.7450   72.5180  -25.6900 C.ar   18  TYR18      -0.0201
      7  CD1       -9.8790   72.5420  -26.5070 C.ar   18  TYR18      -0.0009
      8  CD2       -8.0640   73.7200  -25.4810 C.ar   18  TYR18      -0.0009
      9  CE1      -10.3200   73.7290  -27.0880 C.ar   18  TYR18       0.0417
     10  CE2       -8.4880   74.9080  -26.0660 C.ar   18  TYR18       0.0417
     11  CZ        -9.6080   74.9070  -26.8630 C.ar   18  TYR18       0.1957
     12  OH       -10.0010   76.0840  -27.4510 O.3    18  TYR18      -0.2866
     13  N         -1.2270   70.6040  -25.8740 N.3    77  LEU77      -0.1231
     14  CA        -2.3050   70.9810  -26.7480 C.3    77  LEU77       0.1693
     15  C         -2.2130   72.4350  -27.1950 C.2    77  LEU77       0.2592
     16  O         -2.1800   72.6930  -28.3850 O.2    77  LEU77      -0.2718
     17  CB        -3.6170   70.7090  -25.9860 C.3    77  LEU77       0.0284
     18  CG        -4.3850   69.3660  -25.9550 C.3    77  LEU77       0.0019
     19  CD1       -3.5250   68.2130  -26.3920 C.3    77  LEU77       0.0001
     20  CD2       -5.0130   69.1390  -24.5630 C.3    77  LEU77       0.0001
     21  N         -2.1800   73.3760  -26.2430 N.am   78  CYS78      -0.1956
     22  CA        -2.0980   74.7950  -26.5940 C.3    78  CYS78       0.1843
     23  C         -0.7280   75.1680  -27.1330 C.2    78  CYS78       0.2626
     24  O          0.3040   74.7190  -26.6060 O.2    78  CYS78      -0.2714
     25  CB        -2.4710   75.6560  -25.3780 C.3    78  CYS78       0.0997
     26  SG        -4.2180   75.3880  -24.8830 S.3    78  CYS78      -0.0797
     27  N         -0.7130   75.9900  -28.1800 N.am   79  SER79      -0.1950
     28  CA         0.5560   76.3790  -28.7900 C.3    79  SER79       0.1924
     29  C          1.5250   77.0530  -27.8330 C.2    79  SER79       0.2314
     30  O          2.7110   76.7180  -27.8120 O.2    79  SER79      -0.2863
     31  CB         0.3240   77.2900  -29.9940 C.3    79  SER79       0.2116
     32  OG        -0.2070   76.5510  -31.0890 O.3    79  SER79      -0.2180
     33  N         -2.7380   68.6690  -31.1990 N.3   100  ALA100     -0.1231
     34  CA        -3.5480   69.8860  -31.2630 C.3   100  ALA100      0.1694
     35  C         -2.8850   71.2510  -31.4630 C.2   100  ALA100      0.2592
     36  O         -3.5790   72.2060  -31.8410 O.2   100  ALA100     -0.2718
     37  CB        -4.4660   69.9330  -30.0220 C.3   100  ALA100      0.0304
     38  N         -1.5860   71.3740  -31.2030 N.am  101  ALA101     -0.1966
     39  CA        -0.9110   72.6670  -31.3650 C.3   101  ALA101      0.1728
     40  C         -0.7820   73.0220  -32.8430 C.2   101  ALA101      0.2616
     41  O         -0.2010   72.2640  -33.6280 O.2   101  ALA101     -0.2715
     42  CB         0.4500   72.6370  -30.7260 C.3   101  ALA101      0.0334
     43  N         -1.2870   74.1960  -33.2120 N.am  102  THR102     -0.1951
     44  CA        -1.2770   74.6090  -34.6240 C.3   102  THR102      0.1897
     45  C         -0.3930   75.7830  -35.0540 C.2   102  THR102      0.2313
     46  O         -0.2300   76.0230  -36.2520 O.2   102  THR102     -0.2863
     47  CB        -2.7320   74.9140  -35.0670 C.3   102  THR102      0.1794
     48  OG1       -3.2920   75.8890  -34.1780 O.3   102  THR102     -0.2208
     49  CG2       -3.5970   73.6370  -34.9890 C.3   102  THR102      0.0378
     50  N         -1.5350   81.4160  -30.4270 N.3   150  TYR150     -0.1241
     51  CA        -2.5460   80.7970  -31.2920 C.3   150  TYR150      0.1605
     52  C         -3.5410   81.8050  -31.8640 C.2   150  TYR150      0.2264
     53  O         -3.6050   82.0210  -33.0770 O.2   150  TYR150     -0.2867
     54  CB        -3.3420   79.7390  -30.5010 C.3   150  TYR150      0.0534
     55  CG        -4.5460   79.1700  -31.2440 C.ar  150  TYR150     -0.0201
     56  CD1       -4.3780   78.3390  -32.3540 C.ar  150  TYR150     -0.0009
     57  CD2       -5.8460   79.4330  -30.8100 C.ar  150  TYR150     -0.0009
     58  CE1       -5.4870   77.7700  -33.0080 C.ar  150  TYR150      0.0417
     59  CE2       -6.9560   78.8810  -31.4550 C.ar  150  TYR150      0.0417
     60  CZ        -6.7730   78.0400  -32.5480 C.ar  150  TYR150      0.1957
     61  OH        -7.8600   77.3900  -33.1160 O.3   150  TYR150     -0.2866
     62  N         -9.9200   80.8900  -28.0730 N.3   202  TYR202     -0.1241
     63  CA       -10.5450   79.6880  -27.5210 C.3   202  TYR202      0.1605
     64  C        -12.0040   79.8850  -27.1220 C.2   202  TYR202      0.2264
     65  O        -12.4730   81.0140  -26.9990 O.2   202  TYR202     -0.2867
     66  CB        -9.7510   79.1960  -26.3050 C.3   202  TYR202      0.0534
     67  CG        -8.2740   79.0010  -26.5760 C.ar  202  TYR202     -0.0201
     68  CD1       -7.8390   78.3180  -27.7070 C.ar  202  TYR202     -0.0009
     69  CD2       -7.3170   79.4440  -25.6720 C.ar  202  TYR202     -0.0009
     70  CE1       -6.4930   78.0720  -27.9300 C.ar  202  TYR202      0.0417
     71  CE2       -5.9430   79.1970  -25.8850 C.ar  202  TYR202      0.0417
     72  CZ        -5.5440   78.5050  -27.0160 C.ar  202  TYR202      0.1957
     73  OH        -4.2060   78.1830  -27.2090 O.3   202  TYR202     -0.2866
     74  N        -10.6570   76.2630  -34.9670 N.3   226  GLU226     -0.1231
     75  CA       -11.0760   75.0290  -34.3120 C.3   226  GLU226      0.1699
     76  C        -11.0870   75.0630  -32.7770 C.2   226  GLU226      0.2592
     77  O        -11.7910   74.2720  -32.1490 O.2   226  GLU226     -0.2718
     78  CB       -10.2630   73.8260  -34.8470 C.3   226  GLU226      0.0402
     79  CG        -9.2180   73.2460  -33.9070 C.3   226  GLU226      0.1161
     80  CD        -7.9590   74.1050  -33.7710 C.2   226  GLU226      0.3649
     81  OE1       -7.0560   73.7050  -32.9960 O.co2 226  GLU226     -0.2457
     82  OE2       -7.8630   75.1590  -34.4460 O.co2 226  GLU226     -0.2457
     83  N        -10.3360   75.9760  -32.1700 N.am  227  GLY227     -0.1957
     84  CA       -10.3280   76.0770  -30.7170 C.3   227  GLY227      0.1869
     85  C        -11.6770   76.5100  -30.1430 C.2   227  GLY227      0.2309
     86  O        -11.9220   76.4810  -28.9230 O.2   227  GLY227     -0.2863
     87  N        -10.1350   66.5000  -31.2130 N.3   276  PHE276     -0.1241
     88  CA        -8.9070   66.0100  -30.5940 C.3   276  PHE276      0.1605
     89  C         -8.9900   64.5750  -30.1120 C.2   276  PHE276      0.2264
     90  O         -7.9880   63.9780  -29.7120 O.2   276  PHE276     -0.2867
     91  CB        -8.4330   66.9490  -29.4900 C.3   276  PHE276      0.0534
     92  CG        -8.3070   68.3900  -29.9570 C.ar  276  PHE276     -0.0203
     93  CD1       -7.8560   68.6740  -31.2520 C.ar  276  PHE276     -0.0042
     94  CD2       -8.6540   69.4470  -29.1250 C.ar  276  PHE276     -0.0042
     95  CE1       -7.7590   69.9720  -31.7070 C.ar  276  PHE276     -0.0003
     96  CE2       -8.5570   70.7620  -29.5750 C.ar  276  PHE276     -0.0003
     97  CZ        -8.1070   71.0230  -30.8760 C.ar  276  PHE276     -0.0000
@<TRIPOS>BOND
     1    46    45    2
     2    47    49    1
     3    47    44    1
     4    47    48    1
     5    45    44    1
     6    74    75    1
     7    78    75    1
     8    78    79    1
     9    44    43    1
    10    82    80   ar
    11    75    76    1
    12    79    80    1
    13    80    81   ar
    14    41    40    2
    15    43    40   am
    16    61    60    1
    17    53    52    2
    18    58    60   ar
    19    58    56   ar
    20    40    39    1
    21    76    83   am
    22    76    77    2
    23    60    59   ar
    24    56    55   ar
    25    83    84    1
    26    52    51    1
    27    36    35    2
    28    95    93   ar
    29    95    97   ar
    30    35    34    1
    31    35    38   am
    32    59    57   ar
    33    39    38    1
    34    39    42    1
    35    51    54    1
    36    51    50    1
    37    34    33    1
    38    34    37    1
    39    93    92   ar
    40    55    57   ar
    41    55    54    1
    42    87    88    1
    43    32    31    1
    44    97    96   ar
    45    84    85    1
    46    88    89    1
    47    88    91    1
    48    85    86    2
    49    89    90    2
    50    31    28    1
    51    92    91    1
    52    92    94   ar
    53    96    94   ar
    54    28    27    1
    55    28    29    1
    56    16    15    2
    57    27    23   am
    58    62    63    1
    59    70    68   ar
    60    70    72   ar
    61    29    30    2
    62    68    67   ar
    63    63    64    1
    64    63    66    1
    65    12    11    1
    66    73    72    1
    67    15    14    1
    68    15    21   am
    69    23    24    2
    70    23    22    1
    71    64    65    2
    72     9    11   ar
    73     9     7   ar
    74    72    71   ar
    75    11    10   ar
    76    14    17    1
    77    14    13    1
    78    22    21    1
    79    22    25    1
    80    67    66    1
    81    67    69   ar
    82     7     6   ar
    83    19    18    1
    84    10     8   ar
    85    17    18    1
    86    18    20    1
    87    71    69   ar
    88     6     8   ar
    89     6     5    1
    90    25    26    1
    91     5     2    1
    92     4     3    2
    93     2     3    1
    94     2     1    1
