@<TRIPOS>MOLECULE
tmp/1z18A00.pdb
 97 94 0 0 0
SMALL
GASTEIGER

@<TRIPOS>ATOM
      1  N         48.9670   20.4860   30.2830 N.3    18  TYR18      -0.1241
      2  CA        50.0500   21.2100   30.9810 C.3    18  TYR18       0.1605
      3  C         49.7380   21.2210   32.4760 C.2    18  TYR18       0.2264
      4  O         50.6250   21.0470   33.3230 O.2    18  TYR18      -0.2867
      5  CB        50.1690   22.6690   30.4920 C.3    18  TYR18       0.0534
      6  CG        50.5930   22.8360   29.0400 C.ar   18  TYR18      -0.0201
      7  CD1       51.2910   21.8200   28.3740 C.ar   18  TYR18      -0.0009
      8  CD2       50.2510   23.9850   28.3140 C.ar   18  TYR18      -0.0009
      9  CE1       51.6300   21.9360   27.0320 C.ar   18  TYR18       0.0417
     10  CE2       50.5800   24.1080   26.9670 C.ar   18  TYR18       0.0417
     11  CZ        51.2720   23.0770   26.3390 C.ar   18  TYR18       0.1957
     12  OH        51.6260   23.1720   25.0320 O.3    18  TYR18      -0.2866
     13  N         51.4010   28.7830   33.8050 N.3    77  LEU77      -0.1231
     14  CA        52.1430   27.9980   32.8080 C.3    77  LEU77       0.1693
     15  C         52.4130   28.6490   31.4590 C.2    77  LEU77       0.2592
     16  O         53.5620   28.7270   31.0280 O.2    77  LEU77      -0.2718
     17  CB        51.4640   26.6480   32.5570 C.3    77  LEU77       0.0284
     18  CG        51.4410   25.5470   33.6180 C.3    77  LEU77       0.0019
     19  CD1       52.6210   25.5970   34.5920 C.3    77  LEU77       0.0001
     20  CD2       50.1660   25.6830   34.3410 C.3    77  LEU77       0.0001
     21  N         51.3210   29.0490   30.7290 N.am   78  CYS78      -0.1956
     22  CA        51.4690   29.6780   29.4130 C.3    78  CYS78       0.1843
     23  C         51.9920   31.0890   29.6260 C.2    78  CYS78       0.2626
     24  O         51.6490   31.7500   30.6140 O.2    78  CYS78      -0.2714
     25  CB        50.1230   29.6840   28.6590 C.3    78  CYS78       0.0997
     26  SG        49.4760   28.0030   28.3360 S.3    78  CYS78      -0.0797
     27  N         52.8480   31.5440   28.7190 N.am   79  SER79      -0.1950
     28  CA        53.4210   32.8800   28.8530 C.3    79  SER79       0.1924
     29  C         52.4300   34.0400   28.7190 C.2    79  SER79       0.2314
     30  O         52.4180   34.9390   29.5610 O.2    79  SER79      -0.2863
     31  CB        54.5810   33.0610   27.8690 C.3    79  SER79       0.2116
     32  OG        55.7330   32.3830   28.3470 O.3    79  SER79      -0.2180
     33  N         56.9480   26.6650   33.9640 N.3   100  ALA100     -0.1231
     34  CA        56.7660   26.3410   32.5540 C.3   100  ALA100      0.1694
     35  C         56.8730   27.5010   31.5930 C.2   100  ALA100      0.2592
     36  O         57.2010   27.2890   30.4210 O.2   100  ALA100     -0.2718
     37  CB        55.4280   25.6560   32.3640 C.3   100  ALA100      0.0304
     38  N         56.5940   28.7120   32.0690 N.am  101  ALA101     -0.1966
     39  CA        56.6560   29.8990   31.1900 C.3   101  ALA101      0.1728
     40  C         58.0950   30.1630   30.7510 C.2   101  ALA101      0.2616
     41  O         58.9710   30.3710   31.5970 O.2   101  ALA101     -0.2715
     42  CB        56.0820   31.1250   31.9060 C.3   101  ALA101      0.0334
     43  N         58.3190   30.1780   29.4350 N.am  102  THR102     -0.1951
     44  CA        59.6450   30.3500   28.8470 C.3   102  THR102      0.1897
     45  C         59.9310   31.6300   28.0210 C.2   102  THR102      0.2313
     46  O         61.0880   31.8790   27.6490 O.2   102  THR102     -0.2863
     47  CB        59.9720   29.1320   27.9270 C.3   102  THR102      0.1794
     48  OG1       58.9940   29.0530   26.8690 O.3   102  THR102     -0.2208
     49  CG2       59.9460   27.8350   28.7270 C.3   102  THR102      0.0378
     50  N         54.6360   32.9380   22.8500 N.3   150  TYR150     -0.1241
     51  CA        55.5430   31.8150   22.9310 C.3   150  TYR150      0.1605
     52  C         55.9160   31.2550   21.5600 C.2   150  TYR150      0.2264
     53  O         57.1000   31.1010   21.2570 O.2   150  TYR150     -0.2867
     54  CB        54.8830   30.7340   23.7820 C.3   150  TYR150      0.0534
     55  CG        55.5480   29.3800   23.7600 C.ar  150  TYR150     -0.0201
     56  CD1       56.7100   29.1400   24.4970 C.ar  150  TYR150     -0.0009
     57  CD2       54.9890   28.3220   23.0370 C.ar  150  TYR150     -0.0009
     58  CE1       57.3090   27.8760   24.5230 C.ar  150  TYR150      0.0417
     59  CE2       55.5750   27.0480   23.0520 C.ar  150  TYR150      0.0417
     60  CZ        56.7370   26.8380   23.8000 C.ar  150  TYR150      0.1957
     61  OH        57.3310   25.6030   23.8320 O.3   150  TYR150     -0.2866
     62  N         51.7090   25.1430   20.4890 N.3   202  TYR202     -0.1241
     63  CA        51.2280   24.0700   21.3710 C.3   202  TYR202      0.1605
     64  C         50.7730   22.8080   20.6590 C.2   202  TYR202      0.2264
     65  O         50.4980   22.8510   19.4720 O.2   202  TYR202     -0.2867
     66  CB        50.0680   24.6000   22.2270 C.3   202  TYR202      0.0534
     67  CG        50.4600   25.7960   23.0930 C.ar  202  TYR202     -0.0201
     68  CD1       51.7700   25.9480   23.5490 C.ar  202  TYR202     -0.0009
     69  CD2       49.5100   26.7220   23.5100 C.ar  202  TYR202     -0.0009
     70  CE1       52.1280   26.9970   24.4140 C.ar  202  TYR202      0.0417
     71  CE2       49.8510   27.7640   24.3660 C.ar  202  TYR202      0.0417
     72  CZ        51.1640   27.8940   24.8200 C.ar  202  TYR202      0.1957
     73  OH        51.4850   28.8910   25.7060 O.3   202  TYR202     -0.2866
     74  N         59.1940   22.4290   23.4420 N.3   226  GLU226     -0.1231
     75  CA        58.7380   21.5400   24.4900 C.3   226  GLU226      0.1699
     76  C         57.2150   21.5580   24.6020 C.2   226  GLU226      0.2592
     77  O         56.6140   20.6060   25.1120 O.2   226  GLU226     -0.2718
     78  CB        59.3930   21.9050   25.8300 C.3   226  GLU226      0.0402
     79  CG        58.5150   22.6640   26.8480 C.3   226  GLU226      0.1161
     80  CD        58.3910   24.1390   26.5630 C.2   226  GLU226      0.3649
     81  OE1       57.7320   24.8350   27.3680 O.co2 226  GLU226     -0.2457
     82  OE2       58.9440   24.6080   25.5470 O.co2 226  GLU226     -0.2457
     83  N         56.5930   22.6210   24.0870 N.am  227  GLY227     -0.1957
     84  CA        55.1420   22.7370   24.1380 C.3   227  GLY227      0.1869
     85  C         54.3850   21.6350   23.3960 C.2   227  GLY227      0.2309
     86  O         53.1940   21.4170   23.6570 O.2   227  GLY227     -0.2863
     87  N         56.9180   18.9640   33.1400 N.3   276  PHE276     -0.1241
     88  CA        56.3400   19.8540   34.1470 C.3   276  PHE276      0.1605
     89  C         56.0700   19.2040   35.4980 C.2   276  PHE276      0.2264
     90  O         55.8700   19.8900   36.4980 O.2   276  PHE276     -0.2867
     91  CB        55.0860   20.5360   33.5960 C.3   276  PHE276      0.0534
     92  CG        55.3380   21.3180   32.3250 C.ar  276  PHE276     -0.0203
     93  CD1       56.5630   21.9440   32.1120 C.ar  276  PHE276     -0.0042
     94  CD2       54.3490   21.4380   31.3540 C.ar  276  PHE276     -0.0042
     95  CE1       56.8030   22.6790   30.9490 C.ar  276  PHE276     -0.0003
     96  CE2       54.5780   22.1780   30.1840 C.ar  276  PHE276     -0.0003
     97  CZ        55.8090   22.8020   29.9780 C.ar  276  PHE276     -0.0000
@<TRIPOS>BOND
     1    65    64    2
     2    62    63    1
     3    64    63    1
     4    53    52    2
     5    63    66    1
     6    52    51    1
     7    66    67    1
     8    50    51    1
     9    51    54    1
    10    57    59   ar
    11    57    55   ar
    12    59    60   ar
    13    67    69   ar
    14    67    68   ar
    15    85    86    2
    16    85    84    1
    17    74    75    1
    18    69    71   ar
    19    68    70   ar
    20    55    54    1
    21    55    56   ar
    22    60    61    1
    23    60    58   ar
    24    83    84    1
    25    83    76   am
    26    71    72   ar
    27    70    72   ar
    28    75    76    1
    29    75    78    1
    30    56    58   ar
    31    76    77    2
    32    72    73    1
    33    12    11    1
    34    82    80   ar
    35    78    79    1
    36    11    10   ar
    37    11     9   ar
    38    80    79    1
    39    80    81   ar
    40    48    47    1
    41    10     8   ar
    42     9     7   ar
    43    46    45    2
    44    31    32    1
    45    31    28    1
    46    47    49    1
    47    47    44    1
    48    45    44    1
    49     8     6   ar
    50    26    25    1
    51     7     6   ar
    52    25    22    1
    53    29    28    1
    54    29    30    2
    55    27    28    1
    56    27    23   am
    57    44    43    1
    58     6     5    1
    59    22    23    1
    60    22    21    1
    61    43    40   am
    62    23    24    2
    63    97    96   ar
    64    97    95   ar
    65    96    94   ar
    66     1     2    1
    67    36    35    2
    68     5     2    1
    69    21    15   am
    70    40    39    1
    71    40    41    2
    72    95    93   ar
    73     2     3    1
    74    16    15    2
    75    39    42    1
    76    39    38    1
    77    94    92   ar
    78    15    14    1
    79    35    38   am
    80    35    34    1
    81    93    92   ar
    82    92    91    1
    83    37    34    1
    84     3     4    2
    85    34    33    1
    86    17    14    1
    87    17    18    1
    88    14    13    1
    89    87    88    1
    90    91    88    1
    91    18    20    1
    92    18    19    1
    93    88    89    1
    94    89    90    2
