@<TRIPOS>MOLECULE
tmp/1z1fA00.pdb
 150 143 0 0 0
SMALL
GASTEIGER

@<TRIPOS>ATOM
      1  N         16.3390   37.9230    6.8920 N.3   131  THR131     -0.1218
      2  CA        16.9280   36.6120    7.0940 C.3   131  THR131      0.1862
      3  C         16.5960   35.6920    5.9190 C.2   131  THR131      0.2287
      4  O         17.3840   34.8100    5.5820 O.2   131  THR131     -0.2866
      5  CB        16.4540   35.9960    8.4320 C.3   131  THR131      0.1770
      6  OG1       17.4220   36.2920    9.4470 O.3   131  THR131     -0.2211
      7  CG2       16.2690   34.4910    8.3200 C.3   131  THR131      0.0375
      8  N         22.4660   37.0820    9.3220 N.3   162  GLY162     -0.1210
      9  CA        22.6660   36.5990   10.6740 C.3   162  GLY162      0.1956
     10  C         22.3160   37.6820   11.6770 C.2   162  GLY162      0.2612
     11  O         22.1810   38.8480   11.3170 O.2   162  GLY162     -0.2717
     12  N         22.1730   37.2990   12.9400 N.am  163  CYS163     -0.1970
     13  CA        21.8260   38.2430   13.9940 C.3   163  CYS163      0.1712
     14  C         22.7250   39.4760   14.0710 C.2   163  CYS163      0.2296
     15  O         22.3740   40.4510   14.7280 O.2   163  CYS163     -0.2864
     16  CB        21.8350   37.5370   15.3560 C.3   163  CYS163      0.0983
     17  SG        20.4000   36.4980   15.7110 S.3   163  CYS163     -0.0798
     18  N         12.5690   41.1910    9.8250 N.3   191  GLU191     -0.1231
     19  CA        12.7740   39.8120   10.2200 C.3   191  GLU191      0.1699
     20  C         11.4390   39.1730   10.5960 C.2   191  GLU191      0.2592
     21  O         10.6230   39.7730   11.2940 O.2   191  GLU191     -0.2718
     22  CB        13.7520   39.7640   11.3940 C.3   191  GLU191      0.0402
     23  CG        15.1140   40.3860   11.0850 C.3   191  GLU191      0.1161
     24  CD        15.9610   39.5380   10.1470 C.2   191  GLU191      0.3649
     25  OE1       15.4830   38.4790    9.6880 O.co2 191  GLU191     -0.2457
     26  OE2       17.1140   39.9330    9.8680 O.co2 191  GLU191     -0.2457
     27  N         11.2260   37.9540   10.1180 N.am  192  ASN192     -0.1960
     28  CA         9.9940   37.2190   10.3760 C.3   192  ASN192      0.1819
     29  C         10.3550   35.7500   10.6770 C.2   192  ASN192      0.2621
     30  O         11.1780   35.1490    9.9890 O.2   192  ASN192     -0.2715
     31  CB         9.0860   37.3140    9.1440 C.3   192  ASN192      0.1195
     32  CG         7.7040   36.7650    9.3930 C.2   192  ASN192      0.2630
     33  OD1        6.7630   37.5180    9.6410 O.2   192  ASN192     -0.2716
     34  ND2        7.5730   35.4450    9.3380 N.am  192  ASN192     -0.0877
     35  N          9.7270   35.1810   11.7010 N.am  193  THR193     -0.1951
     36  CA        10.0080   33.8090   12.1170 C.3   193  THR193      0.1897
     37  C          9.2980   32.6840   11.3600 C.2   193  THR193      0.2313
     38  O          9.3550   31.5300   11.7780 O.2   193  THR193     -0.2863
     39  CB         9.7110   33.6270   13.6310 C.3   193  THR193      0.1794
     40  OG1        8.3110   33.8100   13.8850 O.3   193  THR193     -0.2208
     41  CG2       10.5100   34.6320   14.4450 C.3   193  THR193      0.0378
     42  N         10.1540   31.1880    8.8480 N.3   195  VAL195     -0.1231
     43  CA        11.1110   30.2180    8.3300 C.3   195  VAL195      0.1692
     44  C         11.8440   29.4150    9.3820 C.2   195  VAL195      0.2592
     45  O         12.3170   28.3150    9.1030 O.2   195  VAL195     -0.2718
     46  CB        12.1590   30.9020    7.4430 C.3   195  VAL195      0.0266
     47  CG1       11.4650   31.5640    6.2580 C.3   195  VAL195      0.0020
     48  CG2       12.9540   31.9320    8.2620 C.3   195  VAL195      0.0020
     49  N         11.9410   29.9560   10.5910 N.am  196  THR196     -0.1953
     50  CA        12.6450   29.2670   11.6640 C.3   196  THR196      0.1897
     51  C         11.7710   28.4480   12.6180 C.2   196  THR196      0.2313
     52  O         12.2880   27.6370   13.3860 O.2   196  THR196     -0.2863
     53  CB        13.4830   30.2680   12.4630 C.3   196  THR196      0.1794
     54  OG1       12.8110   31.5290   12.4880 O.3   196  THR196     -0.2208
     55  CG2       14.8460   30.4490   11.8190 C.3   196  THR196      0.0378
     56  N         13.4770   34.0540   19.0860 N.3   214  PHE214     -0.1227
     57  CA        13.1240   34.7600   17.8620 C.3   214  PHE214      0.1736
     58  C         11.7080   35.3420   17.7570 C.2   214  PHE214      0.2595
     59  O         10.7120   34.6620   17.9970 O.2   214  PHE214     -0.2718
     60  CB        13.4230   33.8400   16.6760 C.3   214  PHE214      0.0547
     61  CG        14.7600   33.1370   16.7770 C.ar  214  PHE214     -0.0202
     62  CD1       15.8770   33.7990   17.3040 C.ar  214  PHE214     -0.0042
     63  CD2       14.9070   31.8230   16.3330 C.ar  214  PHE214     -0.0042
     64  CE1       17.1160   33.1600   17.3840 C.ar  214  PHE214     -0.0003
     65  CE2       16.1380   31.1760   16.4060 C.ar  214  PHE214     -0.0003
     66  CZ        17.2460   31.8420   16.9330 C.ar  214  PHE214     -0.0000
     67  N         11.6420   36.6170   17.3880 N.am  215  ALA215     -0.1980
     68  CA        10.3770   37.3300   17.2360 C.3   215  ALA215      0.1597
     69  C         10.3290   38.0710   15.9010 C.2   215  ALA215      0.2287
     70  O         11.2870   38.0250   15.1320 O.2   215  ALA215     -0.2864
     71  CB        10.1980   38.3050   18.3750 C.3   215  ALA215      0.0319
     72  N         27.2810   29.6760   16.3130 N.3   253  ILE253     -0.1231
     73  CA        26.0130   30.1250   15.7600 C.3   253  ILE253      0.1692
     74  C         25.9850   29.8330   14.2680 C.2   253  ILE253      0.2593
     75  O         26.9790   30.0240   13.5750 O.2   253  ILE253     -0.2718
     76  CB        25.8390   31.6250   15.9250 C.3   253  ILE253      0.0266
     77  CG1       26.2510   32.0550   17.3210 C.3   253  ILE253      0.0019
     78  CG2       24.4000   31.9930   15.7020 C.3   253  ILE253      0.0020
     79  CD1       26.5130   33.5530   17.4850 C.3   253  ILE253      0.0001
     80  N         24.8450   29.3790   13.7680 N.am  254  GLY254     -0.1942
     81  CA        24.7640   29.0920   12.3530 C.3   254  GLY254      0.2014
     82  C         23.4780   28.4130   11.9510 C.2   254  GLY254      0.2639
     83  O         22.5440   28.3390   12.7390 O.2   254  GLY254     -0.2714
     84  N         23.4330   27.9190   10.7190 N.am  255  GLY255     -0.1954
     85  CA        22.2480   27.2460   10.2280 C.3   255  GLY255      0.1869
     86  C         22.2990   27.0440    8.7270 C.2   255  GLY255      0.2309
     87  O         23.1780   27.5630    8.0500 O.2   255  GLY255     -0.2863
     88  N         14.3950   27.0330    7.7390 N.3   262  LEU262     -0.1231
     89  CA        15.7270   27.4000    8.1830 C.3   262  LEU262      0.1693
     90  C         16.0580   26.6800    9.4820 C.2   262  LEU262      0.2593
     91  O         15.3680   26.8300   10.4950 O.2   262  LEU262     -0.2718
     92  CB        15.8420   28.9120    8.3930 C.3   262  LEU262      0.0284
     93  CG        17.2170   29.3740    8.8870 C.3   262  LEU262      0.0019
     94  CD1       18.2810   28.8700    7.9350 C.3   262  LEU262      0.0001
     95  CD2       17.2650   30.8930    8.9880 C.3   262  LEU262      0.0001
     96  N         17.1150   25.8810    9.4350 N.am  263  THR263     -0.1939
     97  CA        17.5740   25.1410   10.5960 C.3   263  THR263      0.2028
     98  C         18.6530   26.0050   11.2420 C.2   263  THR263      0.2642
     99  O         19.2500   26.8450   10.5710 O.2   263  THR263     -0.2714
    100  CB        18.1840   23.8180   10.1660 C.3   263  THR263      0.1808
    101  OG1       19.3040   24.0870    9.3150 O.3   263  THR263     -0.2208
    102  CG2       17.1600   22.9750    9.4000 C.3   263  THR263      0.0379
    103  N         18.9130   25.8080   12.5310 N.am  264  PHE264     -0.1973
    104  CA        19.9280   26.6170   13.1950 C.3   264  PHE264      0.1639
    105  C         20.4790   26.0070   14.4720 C.2   264  PHE264      0.2290
    106  O         19.7930   25.2660   15.1730 O.2   264  PHE264     -0.2864
    107  CB        19.3470   27.9830   13.5230 C.3   264  PHE264      0.0560
    108  CG        18.2290   27.9260   14.5120 C.ar  264  PHE264     -0.0200
    109  CD1       18.4930   27.9140   15.8800 C.ar  264  PHE264     -0.0042
    110  CD2       16.9090   27.8290   14.0790 C.ar  264  PHE264     -0.0042
    111  CE1       17.4640   27.8030   16.8030 C.ar  264  PHE264     -0.0003
    112  CE2       15.8710   27.7160   14.9920 C.ar  264  PHE264     -0.0003
    113  CZ        16.1490   27.7030   16.3600 C.ar  264  PHE264     -0.0000
    114  N         22.7560   26.9140   18.1020 N.3   266  LEU266     -0.1245
    115  CA        23.1820   27.9540   19.0340 C.3   266  LEU266      0.1561
    116  C         23.9060   27.2560   20.1730 C.2   266  LEU266      0.2260
    117  O         23.2740   26.6900   21.0670 O.2   266  LEU266     -0.2867
    118  CB        21.9660   28.7180   19.5800 C.3   266  LEU266      0.0270
    119  CG        21.0430   29.3610   18.5360 C.3   266  LEU266      0.0019
    120  CD1       19.7590   29.8350   19.1830 C.3   266  LEU266      0.0001
    121  CD2       21.7680   30.5150   17.8610 C.3   266  LEU266      0.0001
    122  N         14.0500   38.5860   20.3130 N.3   335  ASN335     -0.1225
    123  CA        15.1280   38.7000   19.3410 C.3   335  ASN335      0.1785
    124  C         14.6940   38.7140   17.8770 C.2   335  ASN335      0.2597
    125  O         14.6060   37.6710   17.2220 O.2   335  ASN335     -0.2718
    126  CB        16.1470   37.5870   19.5700 C.3   335  ASN335      0.1169
    127  CG        17.3330   37.7100   18.6680 C.2   335  ASN335      0.2627
    128  OD1       17.6540   38.7990   18.2160 O.2   335  ASN335     -0.2716
    129  ND2       18.0050   36.6010   18.4060 N.am  335  ASN335     -0.0877
    130  N         14.4440   39.9210   17.3790 N.am  336  MET336     -0.1965
    131  CA        14.0280   40.1570   16.0020 C.3   336  MET336      0.1736
    132  C         15.2480   40.2320   15.0870 C.2   336  MET336      0.2617
    133  O         15.2320   40.9350   14.0800 O.2   336  MET336     -0.2715
    134  CB        13.2660   41.4790   15.9110 C.3   336  MET336      0.0427
    135  CG        12.1490   41.6130   16.9160 C.3   336  MET336      0.0599
    136  SD        11.4040   43.2250   16.8480 S.3   336  MET336     -0.1393
    137  CE        12.6460   44.1730   17.7120 C.3   336  MET336      0.0692
    138  N         16.3090   39.5210   15.4560 N.am  337  SER337     -0.1950
    139  CA        17.5400   39.4960   14.6770 C.3   337  SER337      0.1924
    140  C         18.1260   40.8840   14.4080 C.2   337  SER337      0.2314
    141  O         18.3380   41.6730   15.3260 O.2   337  SER337     -0.2863
    142  CB        17.3010   38.7690   13.3520 C.3   337  SER337      0.2116
    143  OG        18.5190   38.4720   12.6990 O.3   337  SER337     -0.2180
    144  N         26.4930   34.4390   13.2700 N.3   374  PRO374     -0.2116
    145  CA        27.1700   33.2950   12.6450 C.3   374  PRO374      0.1372
    146  C         28.6780   33.3880   12.3800 C.2   374  PRO374      0.2244
    147  O         29.2110   34.4600   12.0600 O.2   374  PRO374     -0.2868
    148  CB        26.3560   33.0880   11.3790 C.3   374  PRO374      0.0268
    149  CG        24.9680   33.2910   11.8960 C.3   374  PRO374      0.0207
    150  CD        25.1070   34.5410   12.7690 C.3   374  PRO374      0.0892
@<TRIPOS>BOND
     1     4     3    2
     2     3     2    1
     3    47    46    1
     4     1     2    1
     5     2     5    1
     6    46    48    1
     7    46    43    1
     8    88    89    1
     9    94    93    1
    10    87    86    2
    11    89    92    1
    12    89    90    1
    13     7     5    1
    14    43    42    1
    15    43    44    1
    16    92    93    1
    17     5     6    1
    18    86    85    1
    19    93    95    1
    20    45    44    2
    21    31    32    1
    22    31    28    1
    23   101   100    1
    24     8     9    1
    25    34    32   am
    26    44    49   am
    27    32    33    2
    28   102   100    1
    29    96    90   am
    30    96    97    1
    31    90    91    2
    32    25    24   ar
    33    18    19    1
    34    26    24   ar
    35    30    29    2
    36    27    28    1
    37    27    20   am
    38    24    23    1
    39   100    97    1
    40    19    20    1
    41    19    22    1
    42    85    84    1
    43    28    29    1
    44    99    98    2
    45    49    50    1
    46    97    98    1
    47    20    21    2
    48     9    10    1
    49    29    35   am
    50    84    82   am
    51    23    22    1
    52    98   103   am
    53    11    10    2
    54    37    38    2
    55    37    36    1
    56   148   149    1
    57   148   145    1
    58    50    53    1
    59    50    51    1
    60    10    12   am
    61    35    36    1
    62    55    53    1
    63   149   150    1
    64    82    81    1
    65    82    83    2
    66   147   146    2
    67    36    39    1
    68    81    80    1
    69   146   145    1
    70    53    54    1
    71   103   104    1
    72    51    52    2
    73   145   144    1
    74   143   142    1
    75   150   144    1
    76    12    13    1
    77   104   107    1
    78   104   105    1
    79   142   139    1
    80   107   108    1
    81    75    74    2
    82    39    40    1
    83    39    41    1
    84    80    74   am
    85    13    14    1
    86    13    16    1
    87    14    15    2
    88   110   108   ar
    89   110   112   ar
    90   133   132    2
    91    74    73    1
    92   140   139    1
    93   140   141    2
    94   105   106    2
    95   108   109   ar
    96   139   138    1
    97   112   113   ar
    98   132   138   am
    99   132   131    1
   100    70    69    2
   101    16    17    1
   102    78    76    1
   103    73    76    1
   104    73    72    1
   105   109   111   ar
   106    69    68    1
   107   134   131    1
   108   134   135    1
   109    76    77    1
   110   131   130    1
   111    63    65   ar
   112    63    61   ar
   113   113   111   ar
   114    65    66   ar
   115    60    61    1
   116    60    57    1
   117    61    62   ar
   118   136   135    1
   119   136   137    1
   120    66    64   ar
   121   125   124    2
   122    68    67    1
   123    68    71    1
   124    62    64   ar
   125    77    79    1
   126   130   124   am
   127    67    58   am
   128    58    57    1
   129    58    59    2
   130   121   119    1
   131    57    56    1
   132   124   123    1
   133   114   115    1
   134   128   127    2
   135   129   127   am
   136   119   120    1
   137   119   118    1
   138   127   126    1
   139   115   118    1
   140   115   116    1
   141   123   126    1
   142   123   122    1
   143   116   117    2
