@<TRIPOS>MOLECULE
tmp/1z1fA01.pdb
 88 81 0 0 0
SMALL
GASTEIGER

@<TRIPOS>ATOM
      1  N         11.4000   61.9200    8.8420 N.3   116  TRP116     -0.1241
      2  CA        12.4040   62.5900    8.0270 C.3   116  TRP116      0.1605
      3  C         11.8200   63.8570    7.3920 C.2   116  TRP116      0.2264
      4  O         12.4980   64.8810    7.2710 O.2   116  TRP116     -0.2867
      5  CB        12.8910   61.6120    6.9530 C.3   116  TRP116      0.0550
      6  CG        13.9620   62.1340    6.0450 C.ar  116  TRP116      0.0003
      7  CD1       15.0000   62.9470    6.3880 C.ar  116  TRP116      0.0946
      8  CD2       14.1300   61.8340    4.6520 C.ar  116  TRP116      0.0152
      9  NE1       15.8050   63.1730    5.2990 N.ar  116  TRP116     -0.2442
     10  CE2       15.2960   62.5010    4.2190 C.ar  116  TRP116      0.0810
     11  CE3       13.4090   61.0640    3.7280 C.ar  116  TRP116      0.0012
     12  CZ2       15.7610   62.4240    2.8970 C.ar  116  TRP116      0.0191
     13  CZ3       13.8740   60.9870    2.4100 C.ar  116  TRP116      0.0001
     14  CH2       15.0380   61.6640    2.0120 C.ar  116  TRP116      0.0015
     15  N         11.1600   64.4940    4.3470 N.3   118  GLN118     -0.1245
     16  CA        11.5100   64.7010    2.9440 C.3   118  GLN118      0.1566
     17  C         10.7140   63.8100    1.9870 C.2   118  GLN118      0.2260
     18  O         10.0840   62.8340    2.4010 O.2   118  GLN118     -0.2867
     19  CB        13.0010   64.4570    2.7470 C.3   118  GLN118      0.0367
     20  CG        13.8790   65.4570    3.4570 C.3   118  GLN118      0.0905
     21  CD        13.8660   66.8100    2.7840 C.2   118  GLN118      0.2608
     22  OE1       14.2280   66.9380    1.6100 O.2   118  GLN118     -0.2717
     23  NE2       13.4440   67.8320    3.5220 N.am  118  GLN118     -0.0878
     24  N         13.8430   61.6510   -2.9310 N.3   122  LYS122     -0.1245
     25  CA        15.1970   61.9250   -2.4590 C.3   122  LYS122      0.1561
     26  C         15.9870   60.6890   -2.0000 C.2   122  LYS122      0.2260
     27  O         17.1990   60.7680   -1.8180 O.2   122  LYS122     -0.2867
     28  CB        15.1390   62.9360   -1.3190 C.3   122  LYS122      0.0271
     29  CG        14.5360   64.2750   -1.6940 C.3   122  LYS122      0.0035
     30  CD        15.4230   65.0260   -2.6520 C.3   122  LYS122      0.0206
     31  CE        15.0030   66.4750   -2.7530 C.3   122  LYS122      0.1093
     32  NZ        15.9500   67.2640   -3.5930 N.3   122  LYS122     -0.1314
     33  N         18.0900   57.8240   -2.4320 N.3   124  THR124     -0.1218
     34  CA        18.9880   57.4240   -3.4950 C.3   124  THR124      0.1862
     35  C         19.3980   55.9540   -3.4600 C.2   124  THR124      0.2287
     36  O         19.5900   55.3340   -4.5080 O.2   124  THR124     -0.2866
     37  CB        20.2230   58.3080   -3.4430 C.3   124  THR124      0.1770
     38  OG1       20.6960   58.3760   -2.0920 O.3   124  THR124     -0.2211
     39  CG2       19.8770   59.7060   -3.9090 C.3   124  THR124      0.0375
     40  N         24.4770   64.1950   -1.4470 N.3   182  ASP182     -0.1239
     41  CA        23.0190   64.1090   -1.4980 C.3   182  ASP182      0.1674
     42  C         22.4910   62.6860   -1.3720 C.2   182  ASP182      0.2266
     43  O         21.2890   62.4430   -1.5090 O.2   182  ASP182     -0.2867
     44  CB        22.4780   64.7220   -2.7900 C.3   182  ASP182      0.1410
     45  CG        22.8930   66.1670   -2.9710 C.2   182  ASP182      0.3668
     46  OD1       22.8030   66.9470   -1.9980 O.co2 182  ASP182     -0.2456
     47  OD2       23.3000   66.5210   -4.1000 O.co2 182  ASP182     -0.2456
     48  N         20.9700   59.8440    0.2400 N.3   184  ARG184     -0.1245
     49  CA        20.1660   59.6050    1.4190 C.3   184  ARG184      0.1563
     50  C         19.7490   58.1440    1.3960 C.2   184  ARG184      0.2260
     51  O         18.9410   57.7220    0.5740 O.2   184  ARG184     -0.2867
     52  CB        18.9440   60.5210    1.4450 C.3   184  ARG184      0.0307
     53  CG        19.2880   61.9970    1.5200 C.3   184  ARG184      0.0489
     54  CD        19.8330   62.3340    2.8990 C.3   184  ARG184      0.2205
     55  NE        20.1010   63.7610    3.0550 N.pl3 184  ARG184     -0.0865
     56  CZ        21.3030   64.2700    3.3070 C.cat 184  ARG184      0.5346
     57  NH1       22.3500   63.4660    3.4320 N.pl3 184  ARG184      0.1354
     58  NH2       21.4550   65.5810    3.4350 N.pl3 184  ARG184      0.1354
     59  N         24.9260   61.8440    4.7340 N.3   225  SER225     -0.1202
     60  CA        25.9670   62.7820    5.1530 C.3   225  SER225      0.2020
     61  C         25.5610   64.2180    4.8210 C.2   225  SER225      0.2618
     62  O         24.7930   64.4610    3.8810 O.2   225  SER225     -0.2717
     63  CB        27.3080   62.4530    4.4680 C.3   225  SER225      0.2103
     64  OG        27.8700   61.2480    4.9640 O.3   225  SER225     -0.2182
     65  N         26.0830   65.1620    5.5980 N.am  226  ASP226     -0.1973
     66  CA        25.7960   66.5830    5.4080 C.3   226  ASP226      0.1709
     67  C         24.3050   66.8860    5.5550 C.2   226  ASP226      0.2293
     68  O         23.6020   67.1520    4.5700 O.2   226  ASP226     -0.2864
     69  CB        26.2980   67.0490    4.0390 C.3   226  ASP226      0.1436
     70  CG        27.7510   66.6880    3.8040 C.2   226  ASP226      0.3671
     71  OD1       28.5760   66.8960    4.7180 O.co2 226  ASP226     -0.2456
     72  OD2       28.0760   66.1970    2.7040 O.co2 226  ASP226     -0.2456
     73  N         20.8220   68.7040    6.2040 N.3   228  VAL228     -0.1245
     74  CA        20.3650   70.0320    5.8440 C.3   228  VAL228      0.1561
     75  C         19.8940   70.7700    7.1150 C.2   228  VAL228      0.2260
     76  O         19.0450   70.2950    7.8570 O.2   228  VAL228     -0.2867
     77  CB        19.2110   69.9760    4.8340 C.3   228  VAL228      0.0252
     78  CG1       18.7250   71.3880    4.4860 C.3   228  VAL228      0.0019
     79  CG2       19.6380   69.2370    3.5750 C.3   228  VAL228      0.0019
     80  N         16.4240   68.8220    8.1520 N.3   232  GLU232     -0.1245
     81  CA        16.7720   67.4870    8.5980 C.3   232  GLU232      0.1567
     82  C         17.2520   67.5860   10.0410 C.2   232  GLU232      0.2260
     83  O         17.7920   68.5990   10.4770 O.2   232  GLU232     -0.2867
     84  CB        17.8370   66.8540    7.7080 C.3   232  GLU232      0.0388
     85  CG        17.3160   66.4470    6.3500 C.3   232  GLU232      0.1160
     86  CD        18.4230   65.9380    5.4530 C.2   232  GLU232      0.3649
     87  OE1       18.1310   65.1950    4.4930 O.co2 232  GLU232     -0.2457
     88  OE2       19.5930   66.2900    5.7050 O.co2 232  GLU232     -0.2457
@<TRIPOS>BOND
     1    36    35    2
     2    47    45   ar
     3    39    37    1
     4    32    31    1
     5    34    35    1
     6    34    37    1
     7    34    33    1
     8    37    38    1
     9    45    44    1
    10    45    46   ar
    11    24    25    1
    12    44    41    1
    13    31    30    1
    14    30    29    1
    15    25    26    1
    16    25    28    1
    17    26    27    2
    18    29    28    1
    19    43    42    2
    20    41    40    1
    21    41    42    1
    22    48    49    1
    23    51    50    2
    24    50    49    1
    25    49    52    1
    26    52    53    1
    27    53    54    1
    28    22    21    2
    29    17    18    2
    30    17    16    1
    31    14    13   ar
    32    14    12   ar
    33    13    11   ar
    34    72    70   ar
    35    19    16    1
    36    19    20    1
    37    21    20    1
    38    21    23   am
    39    12    10   ar
    40    54    55    1
    41    16    15    1
    42    55    56    2
    43    56    57    1
    44    56    58    1
    45    79    77    1
    46    11     8   ar
    47    70    69    1
    48    70    71   ar
    49    62    61    2
    50    69    66    1
    51    10     8   ar
    52    10     9   ar
    53    63    64    1
    54    63    60    1
    55    78    77    1
    56    87    86   ar
    57    68    67    2
    58     8     6   ar
    59    59    60    1
    60    61    60    1
    61    61    65   am
    62    77    74    1
    63     9     7   ar
    64    66    67    1
    65    66    65    1
    66    86    88   ar
    67    86    85    1
    68    74    73    1
    69    74    75    1
    70     6     7   ar
    71     6     5    1
    72    85    84    1
    73     5     2    1
    74    75    76    2
    75     4     3    2
    76     3     2    1
    77    84    81    1
    78     2     1    1
    79    80    81    1
    80    81    82    1
    81    82    83    2
