@<TRIPOS>MOLECULE
tmp/1z1nA15.pdb
 213 202 0 0 0
SMALL
GASTEIGER

@<TRIPOS>ATOM
      1  N         23.4550   21.2180   23.1840 N.3   117  LEU117     -0.1245
      2  CA        23.7680   20.0710   24.0560 C.3   117  LEU117      0.1561
      3  C         22.5940   19.0280   24.1350 C.2   117  LEU117      0.2260
      4  O         22.7960   17.7820   24.1770 O.2   117  LEU117     -0.2867
      5  CB        24.2150   20.5600   25.4380 C.3   117  LEU117      0.0270
      6  CG        25.5260   21.3470   25.4650 C.3   117  LEU117      0.0019
      7  CD1       25.6580   21.8640   26.8360 C.3   117  LEU117      0.0001
      8  CD2       26.6460   20.4220   25.1080 C.3   117  LEU117      0.0001
      9  N         27.8420   16.6810   28.7220 N.3   231  LEU231     -0.1245
     10  CA        28.7540   16.3380   27.6770 C.3   231  LEU231      0.1561
     11  C         30.1630   16.5720   28.1750 C.2   231  LEU231      0.2260
     12  O         30.7170   17.6300   28.0210 O.2   231  LEU231     -0.2867
     13  CB        28.4340   17.0920   26.3770 C.3   231  LEU231      0.0270
     14  CG        29.3710   16.8990   25.1820 C.3   231  LEU231      0.0019
     15  CD1       29.4690   15.4740   24.7190 C.3   231  LEU231      0.0001
     16  CD2       28.9280   17.7760   24.0220 C.3   231  LEU231      0.0001
     17  N         34.0630   16.5720   28.7020 N.3   233  ARG233     -0.1231
     18  CA        35.3580   16.5160   28.0080 C.3   233  ARG233      0.1694
     19  C         36.5380   16.9230   28.8780 C.2   233  ARG233      0.2593
     20  O         37.5270   17.3770   28.3710 O.2   233  ARG233     -0.2718
     21  CB        35.3030   17.3560   26.6940 C.3   233  ARG233      0.0321
     22  CG        34.4230   16.6540   25.5520 C.3   233  ARG233      0.0489
     23  CD        35.2080   15.8250   24.4310 C.3   233  ARG233      0.2205
     24  NE        36.5840   15.6460   24.8560 N.pl3 233  ARG233     -0.0865
     25  CZ        37.6680   16.1410   24.2560 C.cat 233  ARG233      0.5346
     26  NH1       37.5890   16.7960   23.1140 N.pl3 233  ARG233      0.1354
     27  NH2       38.8630   15.9210   24.7990 N.pl3 233  ARG233      0.1354
     28  N         36.4070   16.7950   30.1850 N.am  234  GLY234     -0.1942
     29  CA        37.4640   17.1370   31.1250 C.3   234  GLY234      0.2014
     30  C         37.2890   18.6150   31.5890 C.2   234  GLY234      0.2639
     31  O         38.2240   19.2160   32.1240 O.2   234  GLY234     -0.2714
     32  N         36.1420   19.2340   31.3260 N.am  235  GLN235     -0.1963
     33  CA        35.9970   20.6840   31.7710 C.3   235  GLN235      0.1718
     34  C         35.8830   20.7580   33.3230 C.2   235  GLN235      0.2458
     35  O         35.4580   19.7970   33.9690 O.2   235  GLN235     -0.2730
     36  CB        34.7790   21.2840   31.1000 C.3   235  GLN235      0.0407
     37  CG        33.5130   20.6630   31.4980 C.3   235  GLN235      0.0908
     38  CD        33.0810   19.6660   30.5080 C.2   235  GLN235      0.2608
     39  OE1       33.9230   18.9580   29.9170 O.2   235  GLN235     -0.2717
     40  NE2       31.7530   19.6210   30.2520 N.am  235  GLN235     -0.0878
     41  N         36.2890   21.8760   33.9570 N.am  236  PRO236     -0.2727
     42  CA        36.0670   22.0210   35.4190 C.3   236  PRO236      0.1402
     43  C         34.6170   22.3150   35.7190 C.2   236  PRO236      0.2269
     44  O         33.9270   22.6390   34.8060 O.2   236  PRO236     -0.2865
     45  CB        36.9360   23.2290   35.7550 C.3   236  PRO236      0.0296
     46  CG        36.8410   24.0940   34.5280 C.3   236  PRO236      0.0237
     47  CD        37.0390   23.0330   33.3950 C.3   236  PRO236      0.0939
     48  N         36.2550   27.1890   38.1130 N.3   239  THR239     -0.1218
     49  CA        37.6580   27.4160   38.1760 C.3   239  THR239      0.1862
     50  C         37.9330   28.9020   38.5340 C.2   239  THR239      0.2287
     51  O         37.0620   29.7630   38.3830 O.2   239  THR239     -0.2866
     52  CB        38.3440   27.0140   36.8710 C.3   239  THR239      0.1770
     53  OG1       39.7630   26.9470   37.0740 O.3   239  THR239     -0.2211
     54  CG2       38.0340   27.9400   35.7890 C.3   239  THR239      0.0375
     55  N         39.9590   32.1580   37.6920 N.3   241  LEU241     -0.1245
     56  CA        40.6950   32.6760   36.5690 C.3   241  LEU241      0.1561
     57  C         41.5730   33.7840   37.1320 C.2   241  LEU241      0.2260
     58  O         41.0690   34.7850   37.6130 O.2   241  LEU241     -0.2867
     59  CB        39.7520   33.1740   35.4600 C.3   241  LEU241      0.0270
     60  CG        38.7630   32.0680   35.0780 C.3   241  LEU241      0.0019
     61  CD1       37.8720   32.5590   34.0200 C.3   241  LEU241      0.0001
     62  CD2       39.6080   30.8790   34.5040 C.3   241  LEU241      0.0001
     63  N         47.7350   23.7630   33.9130 N.3   250  GLY250     -0.1225
     64  CA        46.7280   24.5540   34.6500 C.3   250  GLY250      0.1811
     65  C         47.3090   25.2560   35.8670 C.2   250  GLY250      0.2280
     66  O         46.6330   26.0760   36.5530 O.2   250  GLY250     -0.2866
     67  N         34.7050   31.3680   38.2170 N.3   266  PHE266     -0.1241
     68  CA        33.8230   31.2240   37.0830 C.3   266  PHE266      0.1605
     69  C         33.0570   29.8780   37.2230 C.2   266  PHE266      0.2264
     70  O         33.7140   28.8580   37.5160 O.2   266  PHE266     -0.2867
     71  CB        34.6550   31.2440   35.8180 C.3   266  PHE266      0.0534
     72  CG        33.8680   30.8800   34.5160 C.ar  266  PHE266     -0.0203
     73  CD1       32.7600   31.5480   34.1260 C.ar  266  PHE266     -0.0042
     74  CD2       34.2790   29.8270   33.7180 C.ar  266  PHE266     -0.0042
     75  CE1       32.0840   31.1410   32.9670 C.ar  266  PHE266     -0.0003
     76  CE2       33.5720   29.4120   32.5720 C.ar  266  PHE266     -0.0003
     77  CZ        32.5050   30.0360   32.2040 C.ar  266  PHE266     -0.0000
     78  N         31.6510   27.2210   35.4420 N.3   268  HIS268     -0.1241
     79  CA        31.6960   26.6060   34.1760 C.3   268  HIS268      0.1621
     80  C         30.5170   25.6810   34.0070 C.2   268  HIS268      0.2264
     81  O         29.8590   25.6630   32.9700 O.2   268  HIS268     -0.2867
     82  CB        33.0430   25.8030   34.0040 C.3   268  HIS268      0.0745
     83  CG        33.2300   25.2940   32.6100 C.ar  268  HIS268      0.0817
     84  ND1       32.4430   24.3000   32.0570 N.ar  268  HIS268     -0.2268
     85  CD2       34.1030   25.6510   31.6530 C.ar  268  HIS268      0.1154
     86  CE1       32.8510   24.0650   30.8190 C.ar  268  HIS268      0.1986
     87  NE2       33.8570   24.8810   30.5580 N.ar  268  HIS268     -0.2212
     88  N         27.3690   27.6210   33.2050 N.3   271  HIS271     -0.1226
     89  CA        27.4190   28.0950   31.8450 C.3   271  HIS271      0.1752
     90  C         27.1590   27.1620   30.7540 C.2   271  HIS271      0.2595
     91  O         26.7260   27.5590   29.7280 O.2   271  HIS271     -0.2718
     92  CB        28.7480   28.8420   31.6080 C.3   271  HIS271      0.0759
     93  CG        28.6890   30.2570   32.1080 C.ar  271  HIS271      0.0818
     94  ND1       28.7730   30.5780   33.4420 N.ar  271  HIS271     -0.2268
     95  CD2       28.3750   31.4070   31.4580 C.ar  271  HIS271      0.1154
     96  CE1       28.5740   31.8770   33.5800 C.ar  271  HIS271      0.1986
     97  NE2       28.3470   32.3940   32.3910 N.ar  271  HIS271     -0.2212
     98  N         27.4960   25.8630   30.9070 N.am  272  GLU272     -0.1979
     99  CA        27.2080   24.9440   29.8610 C.3   272  GLU272      0.1602
    100  C         25.7290   24.9120   29.7370 C.2   272  GLU272      0.2287
    101  O         25.1730   24.7920   28.6300 O.2   272  GLU272     -0.2864
    102  CB        27.7720   23.5500   30.2540 C.3   272  GLU272      0.0415
    103  CG        29.3140   23.5430   30.4770 C.3   272  GLU272      0.1163
    104  CD        29.7660   22.2560   31.1460 C.2   272  GLU272      0.3649
    105  OE1       30.6010   22.2980   32.0720 O.co2 272  GLU272     -0.2457
    106  OE2       29.1760   21.2010   30.7780 O.co2 272  GLU272     -0.2457
    107  N         24.5470   28.6800   28.3660 N.3   275  VAL275     -0.1245
    108  CA        24.8530   28.8520   26.9530 C.3   275  VAL275      0.1561
    109  C         24.2790   27.7190   26.1010 C.2   275  VAL275      0.2260
    110  O         23.7410   27.9860   25.0320 O.2   275  VAL275     -0.2867
    111  CB        26.3910   29.0750   26.7410 C.3   275  VAL275      0.0252
    112  CG1       26.6850   29.4110   25.2880 C.3   275  VAL275      0.0019
    113  CG2       26.8700   30.2230   27.6630 C.3   275  VAL275      0.0019
    114  N         25.7610   25.2620   24.5700 N.3   277  ASN277     -0.1225
    115  CA        26.7630   24.6240   23.7340 C.3   277  ASN277      0.1785
    116  C         28.1240   25.0320   24.2630 C.2   277  ASN277      0.2597
    117  O         28.1860   25.7820   25.2370 O.2   277  ASN277     -0.2718
    118  CB        26.6240   25.0290   22.2490 C.3   277  ASN277      0.1169
    119  CG        26.6060   26.5080   22.0590 C.2   277  ASN277      0.2627
    120  OD1       27.6260   27.1740   22.0830 O.2   277  ASN277     -0.2716
    121  ND2       25.4490   27.0300   21.8070 N.am  277  ASN277     -0.0877
    122  N         29.1860   24.5390   23.6140 N.am  278  CYS278     -0.1970
    123  CA        30.6040   24.7710   23.9850 C.3   278  CYS278      0.1712
    124  C         31.2840   25.7090   23.0170 C.2   278  CYS278      0.2296
    125  O         32.0900   26.5150   23.4710 O.2   278  CYS278     -0.2864
    126  CB        31.3930   23.4640   23.9370 C.3   278  CYS278      0.0983
    127  SG        30.5380   22.0710   24.6460 S.3   278  CYS278     -0.0798
    128  N         31.8930   29.5850   23.2020 N.3   281  CYS281     -0.1221
    129  CA        33.0540   30.1350   23.9480 C.3   281  CYS281      0.1808
    130  C         34.3930   29.6250   23.3980 C.2   281  CYS281      0.2601
    131  O         35.3210   30.4290   23.1750 O.2   281  CYS281     -0.2717
    132  CB        32.9780   29.8200   25.4310 C.3   281  CYS281      0.0970
    133  SG        31.5130   30.5330   26.2730 S.3   281  CYS281     -0.0800
    134  N         34.4770   28.3080   23.2150 N.am  282  HIS282     -0.1975
    135  CA        35.6850   27.6640   22.7260 C.3   282  HIS282      0.1656
    136  C         35.5730   27.7690   21.2310 C.2   282  HIS282      0.2291
    137  O         35.2190   26.7850   20.5440 O.2   282  HIS282     -0.2864
    138  CB        35.6850   26.2000   23.1620 C.3   282  HIS282      0.0771
    139  CG        35.7630   26.0350   24.6370 C.ar  282  HIS282      0.0820
    140  ND1       36.9000   26.3060   25.3540 N.ar  282  HIS282     -0.2267
    141  CD2       34.8220   25.6810   25.5380 C.ar  282  HIS282      0.1154
    142  CE1       36.6560   26.1110   26.6370 C.ar  282  HIS282      0.1986
    143  NE2       35.3980   25.7260   26.7710 N.ar  282  HIS282     -0.2212
    144  N         38.8330   22.9150   22.5730 N.3   291  LEU291     -0.1231
    145  CA        38.3090   23.1040   23.9250 C.3   291  LEU291      0.1693
    146  C         39.3970   23.5350   24.9420 C.2   291  LEU291      0.2592
    147  O         39.2200   23.5100   26.1530 O.2   291  LEU291     -0.2718
    148  CB        37.5470   21.8420   24.3540 C.3   291  LEU291      0.0284
    149  CG        36.2830   21.5110   23.5630 C.3   291  LEU291      0.0019
    150  CD1       35.8680   20.1530   23.9460 C.3   291  LEU291      0.0001
    151  CD2       35.1050   22.5360   23.8560 C.3   291  LEU291      0.0001
    152  N         40.5010   24.0560   24.4450 N.am  292  ALA292     -0.1966
    153  CA        41.6020   24.4300   25.3180 C.3   292  ALA292      0.1728
    154  C         41.2650   25.6020   26.2340 C.2   292  ALA292      0.2616
    155  O         40.4760   26.4730   25.8560 O.2   292  ALA292     -0.2715
    156  CB        42.8300   24.7680   24.4720 C.3   292  ALA292      0.0334
    157  N         41.9020   25.6440   27.4020 N.am  293  ALA293     -0.1963
    158  CA        41.7760   26.7340   28.3250 C.3   293  ALA293      0.1728
    159  C         42.2570   27.9650   27.5880 C.2   293  ALA293      0.2616
    160  O         43.2830   27.9060   26.9040 O.2   293  ALA293     -0.2715
    161  CB        42.6290   26.4560   29.5340 C.3   293  ALA293      0.0334
    162  N         41.5110   29.0620   27.6740 N.am  294  CYS294     -0.1954
    163  CA        41.7480   30.2460   26.8520 C.3   294  CYS294      0.1843
    164  C         43.0970   30.8570   27.0820 C.2   294  CYS294      0.2626
    165  O         43.6690   31.4960   26.1710 O.2   294  CYS294     -0.2714
    166  CB        40.7650   31.3560   27.2860 C.3   294  CYS294      0.0997
    167  SG        39.0460   30.6970   27.6940 S.3   294  CYS294     -0.0797
    168  N         43.5160   30.7720   28.3450 N.am  295  GLY295     -0.1940
    169  CA        44.6380   31.4810   28.8700 C.3   295  GLY295      0.2014
    170  C         45.9650   30.7400   28.8480 C.2   295  GLY295      0.2638
    171  O         46.9700   31.3820   28.9850 O.2   295  GLY295     -0.2714
    172  N         45.9980   29.4200   28.6890 N.am  296  VAL296     -0.1977
    173  CA        47.3060   28.7350   28.6970 C.3   296  VAL296      0.1596
    174  C         48.2780   29.2740   27.6210 C.2   296  VAL296      0.2287
    175  O         49.2840   29.9200   27.9690 O.2   296  VAL296     -0.2864
    176  CB        47.2130   27.2130   28.5580 C.3   296  VAL296      0.0276
    177  CG1       48.6240   26.6340   28.3290 C.3   296  VAL296      0.0022
    178  CG2       46.5450   26.5780   29.8060 C.3   296  VAL296      0.0022
    179  N         33.0200   37.3500   28.3010 N.3   325  CYS325     -0.1235
    180  CA        32.0850   37.4140   29.3650 C.3   325  CYS325      0.1677
    181  C         31.2420   38.6560   29.2320 C.2   325  CYS325      0.2270
    182  O         30.0500   38.5500   29.3620 O.2   325  CYS325     -0.2867
    183  CB        32.7400   37.5230   30.7260 C.3   325  CYS325      0.0956
    184  SG        34.3060   36.5130   31.0840 S.3   325  CYS325     -0.0801
    185  N         45.9630   23.6500   39.2500 N.3   374  LYS374     -0.1245
    186  CA        44.5970   23.5570   38.6860 C.3   374  LYS374      0.1561
    187  C         43.5440   23.1570   39.7080 C.2   374  LYS374      0.2260
    188  O         42.5630   23.8390   39.8760 O.2   374  LYS374     -0.2867
    189  CB        44.6180   22.5910   37.5340 C.3   374  LYS374      0.0271
    190  CG        43.6780   22.9310   36.4200 C.3   374  LYS374      0.0035
    191  CD        43.2590   21.6670   35.6860 C.3   374  LYS374      0.0206
    192  CE        44.1560   21.5310   34.4600 C.3   374  LYS374      0.1093
    193  NZ        43.4870   20.9750   33.2400 N.3   374  LYS374     -0.1314
    194  N         42.7820   25.8420   42.3800 N.3   377  ARG377     -0.1231
    195  CA        41.9560   26.9160   41.7690 C.3   377  ARG377      0.1694
    196  C         40.4860   26.4720   41.7340 C.2   377  ARG377      0.2591
    197  O         39.5760   27.2100   42.1450 O.2   377  ARG377     -0.2718
    198  CB        42.4380   27.1400   40.3450 C.3   377  ARG377      0.0321
    199  CG        43.7340   27.8980   40.2290 C.3   377  ARG377      0.0489
    200  CD        43.6700   28.5840   38.9060 C.3   377  ARG377      0.2205
    201  NE        44.1250   27.7810   37.8380 N.pl3 377  ARG377     -0.0865
    202  CZ        43.6100   27.6930   36.6120 C.cat 377  ARG377      0.5346
    203  NH1       42.4760   28.3540   36.1670 N.pl3 377  ARG377      0.1354
    204  NH2       44.2710   26.8790   35.7980 N.pl3 377  ARG377      0.1354
    205  N         40.2440   25.2300   41.2890 N.am  378  GLU378     -0.1979
    206  CA        38.8940   24.7620   41.0360 C.3   378  GLU378      0.1602
    207  C         38.1940   24.5360   42.3460 C.2   378  GLU378      0.2287
    208  O         36.9960   24.7510   42.4900 O.2   378  GLU378     -0.2864
    209  CB        38.8810   23.5030   40.1550 C.3   378  GLU378      0.0415
    210  CG        39.4780   23.6770   38.7790 C.3   378  GLU378      0.1163
    211  CD        39.5330   22.3450   38.0440 C.2   378  GLU378      0.3649
    212  OE1       39.1380   21.3390   38.6870 O.co2 378  GLU378     -0.2457
    213  OE2       39.9470   22.3030   36.8540 O.co2 378  GLU378     -0.2457
@<TRIPOS>BOND
     1   137   136    2
     2   136   135    1
     3   121   119   am
     4   119   120    2
     5   119   118    1
     6   118   115    1
     7   144   145    1
     8   135   138    1
     9   135   134    1
    10   124   125    2
    11   124   123    1
    12    26    25    1
    13   138   139    1
    14   131   130    2
    15     1     2    1
    16   128   129    1
    17   134   130   am
    18   130   129    1
    19   149   151    1
    20   149   150    1
    21   149   148    1
    22   122   123    1
    23   122   116   am
    24   115   116    1
    25   115   114    1
    26   145   148    1
    27   145   146    1
    28   126   123    1
    29   126   127    1
    30   129   132    1
    31    16    14    1
    32     2     3    1
    33     2     5    1
    34     3     4    2
    35    25    27    1
    36    25    24    2
    37   116   117    2
    38    23    24    1
    39    23    22    1
    40   152   146   am
    41   152   153    1
    42   156   153    1
    43   139   140   ar
    44   139   141   ar
    45    15    14    1
    46   146   147    2
    47   110   109    2
    48     8     6    1
    49    14    13    1
    50   112   111    1
    51   153   154    1
    52   140   142   ar
    53   132   133    1
    54     5     6    1
    55     6     7    1
    56   141   143   ar
    57    22    21    1
    58   155   154    2
    59   109   108    1
    60   165   164    2
    61   154   157   am
    62    13    10    1
    63   142   143   ar
    64    21    18    1
    65   111   108    1
    66   111   113    1
    67   163   164    1
    68   163   166    1
    69   163   162    1
    70   160   159    2
    71   108   107    1
    72   164   168   am
    73   166   167    1
    74   157   158    1
    75   159   162   am
    76   159   158    1
    77   174   175    2
    78   174   173    1
    79    10    11    1
    80    10     9    1
    81    18    17    1
    82    18    19    1
    83    12    11    2
    84   179   180    1
    85   158   161    1
    86   177   176    1
    87   168   169    1
    88    20    19    2
    89   176   173    1
    90   176   178    1
    91   101   100    2
    92   172   173    1
    93   172   170   am
    94   170   169    1
    95   170   171    2
    96    19    28   am
    97   181   182    2
    98   181   180    1
    99   180   183    1
   100    91    90    2
   101   100    99    1
   102    99   102    1
   103    99    98    1
   104    39    38    2
   105    28    29    1
   106    40    38   am
   107   102   103    1
   108   103   104    1
   109    38    37    1
   110    87    86   ar
   111    87    85   ar
   112   183   184    1
   113    90    98   am
   114    90    89    1
   115   106   104   ar
   116    86    84   ar
   117    36    37    1
   118    36    33    1
   119    29    30    1
   120   104   105   ar
   121    32    30   am
   122    32    33    1
   123    95    93   ar
   124    95    97   ar
   125    30    31    2
   126    92    89    1
   127    92    93    1
   128    85    83   ar
   129    33    34    1
   130    89    88    1
   131    84    83   ar
   132    93    94   ar
   133    77    76   ar
   134    77    75   ar
   135    97    96   ar
   136    76    74   ar
   137    83    82    1
   138    75    73   ar
   139    81    80    2
   140   193   192    1
   141    34    41   am
   142    34    35    2
   143    47    41    1
   144    47    46    1
   145    94    96   ar
   146    74    72   ar
   147    63    64    1
   148    41    42    1
   149    82    79    1
   150    80    79    1
   151    61    60    1
   152    73    72   ar
   153    79    78    1
   154   192   191    1
   155    62    60    1
   156    72    71    1
   157    46    45    1
   158    64    65    1
   159    44    43    2
   160    60    59    1
   161    42    43    1
   162    42    45    1
   163    59    56    1
   164   191   190    1
   165    54    52    1
   166   204   202    1
   167    71    68    1
   168    65    66    2
   169   203   202    1
   170   190   189    1
   171    56    57    1
   172    56    55    1
   173   202   201    2
   174   213   211   ar
   175    52    53    1
   176    52    49    1
   177    68    69    1
   178    68    67    1
   179    57    58    2
   180    69    70    2
   181   189   186    1
   182   201   200    1
   183   211   212   ar
   184   211   210    1
   185    48    49    1
   186    49    50    1
   187    51    50    2
   188   186   185    1
   189   186   187    1
   190   210   209    1
   191   200   199    1
   192   187   188    2
   193   209   206    1
   194   199   198    1
   195   198   195    1
   196   206   205    1
   197   206   207    1
   198   205   196   am
   199   196   195    1
   200   196   197    2
   201   195   194    1
   202   207   208    2
