@<TRIPOS>MOLECULE
tmp/1z1nA01.pdb
 212 200 0 0 0
SMALL
GASTEIGER

@<TRIPOS>ATOM
      1  N         31.8650   39.8480   29.0990 N.3   326  VAL326     -0.1245
      2  CA        31.0900   41.0820   29.1600 C.3   326  VAL326      0.1561
      3  C         30.3390   41.2500   27.8770 C.2   326  VAL326      0.2260
      4  O         29.1660   41.6020   27.9120 O.2   326  VAL326     -0.2867
      5  CB        32.0150   42.3350   29.3480 C.3   326  VAL326      0.0252
      6  CG1       31.1580   43.6220   29.2500 C.3   326  VAL326      0.0019
      7  CG2       32.6530   42.3120   30.7460 C.3   326  VAL326      0.0019
      8  N         27.2730   38.8850   27.8800 N.3   329  HIS329     -0.1226
      9  CA        26.2390   39.3190   28.7630 C.3   329  HIS329      0.1752
     10  C         25.5450   40.5500   28.2450 C.2   329  HIS329      0.2596
     11  O         24.2940   40.6860   28.3880 O.2   329  HIS329     -0.2718
     12  CB        26.7790   39.6760   30.1210 C.3   329  HIS329      0.0759
     13  CG        27.3750   38.5350   30.9020 C.ar  329  HIS329      0.0818
     14  ND1       28.0930   38.7480   32.0650 N.ar  329  HIS329     -0.2268
     15  CD2       27.3010   37.1850   30.7480 C.ar  329  HIS329      0.1154
     16  CE1       28.4370   37.5810   32.5900 C.ar  329  HIS329      0.1986
     17  NE2       27.9460   36.6250   31.8310 N.ar  329  HIS329     -0.2212
     18  N         26.3260   41.5020   27.7050 N.am  330  THR330     -0.1953
     19  CA        25.7130   42.7760   27.3160 C.3   330  THR330      0.1897
     20  C         24.9700   42.5540   25.9970 C.2   330  THR330      0.2313
     21  O         23.9540   43.1680   25.7650 O.2   330  THR330     -0.2863
     22  CB        26.7080   43.9790   27.2120 C.3   330  THR330      0.1794
     23  OG1       27.6240   43.6210   26.2580 O.3   330  THR330     -0.2208
     24  CG2       27.4780   44.2220   28.4510 C.3   330  THR330      0.0378
     25  N         21.5910   41.3450   27.2810 N.3   333  ALA333     -0.1245
     26  CA        20.8350   42.3900   28.0070 C.3   333  ALA333      0.1562
     27  C         20.2230   43.3850   27.0230 C.2   333  ALA333      0.2260
     28  O         19.1450   43.9030   27.2260 O.2   333  ALA333     -0.2867
     29  CB        21.7240   43.0860   29.0780 C.3   333  ALA333      0.0290
     30  N         17.3640   40.9360   24.6310 N.3   336  ARG336     -0.1245
     31  CA        16.1760   40.3930   25.2120 C.3   336  ARG336      0.1563
     32  C         15.2150   41.4890   25.5140 C.2   336  ARG336      0.2260
     33  O         15.6100   42.4490   26.1290 O.2   336  ARG336     -0.2867
     34  CB        16.4800   39.7000   26.5040 C.3   336  ARG336      0.0307
     35  CG        17.3890   38.4080   26.3450 C.3   336  ARG336      0.0489
     36  CD        17.5140   37.8410   27.6960 C.3   336  ARG336      0.2205
     37  NE        18.6210   36.9450   27.6080 N.pl3 336  ARG336     -0.0865
     38  CZ        19.1250   36.2530   28.6030 C.cat 336  ARG336      0.5346
     39  NH1       18.5860   36.3160   29.7710 N.pl3 336  ARG336      0.1354
     40  NH2       20.1660   35.4570   28.3700 N.pl3 336  ARG336      0.1354
     41  N         12.7870   41.7170   27.5360 N.3   338  GLU338     -0.1231
     42  CA        12.6160   42.0170   28.9190 C.3   338  GLU338      0.1699
     43  C         13.7900   42.8280   29.5850 C.2   338  GLU338      0.2592
     44  O         13.5930   43.3850   30.6860 O.2   338  GLU338     -0.2718
     45  CB        12.3560   40.7420   29.6920 C.3   338  GLU338      0.0402
     46  CG        13.5220   39.8240   29.8610 C.3   338  GLU338      0.1161
     47  CD        13.5350   38.6810   28.8480 C.2   338  GLU338      0.3649
     48  OE1       12.8970   38.8400   27.7680 O.co2 338  GLU338     -0.2457
     49  OE2       14.1830   37.6270   29.1690 O.co2 338  GLU338     -0.2457
     50  N         14.9500   42.8850   28.9270 N.am  339  CYS339     -0.1970
     51  CA        16.1060   43.6170   29.4960 C.3   339  CYS339      0.1712
     52  C         16.3770   44.9270   28.7740 C.2   339  CYS339      0.2296
     53  O         16.9560   45.8580   29.3630 O.2   339  CYS339     -0.2864
     54  CB        17.3420   42.7770   29.3090 C.3   339  CYS339      0.0983
     55  SG        17.0360   40.9450   29.6990 S.3   339  CYS339     -0.0798
     56  N         15.5970   48.7920   29.6920 N.3   342  CYS342     -0.1221
     57  CA        16.5810   49.5500   30.4110 C.3   342  CYS342      0.1808
     58  C         17.9530   49.5470   29.7700 C.2   342  CYS342      0.2601
     59  O         18.7120   50.5220   29.9100 O.2   342  CYS342     -0.2717
     60  CB        16.7420   49.0730   31.7970 C.3   342  CYS342      0.0970
     61  SG        15.2340   49.1390   32.7810 S.3   342  CYS342     -0.0800
     62  N         18.3070   48.4650   29.1100 N.am  343  HIS343     -0.1975
     63  CA        19.7070   48.3630   28.6260 C.3   343  HIS343      0.1656
     64  C         19.9730   48.9790   27.3560 C.2   343  HIS343      0.2291
     65  O         21.0850   49.4440   27.1550 O.2   343  HIS343     -0.2864
     66  CB        20.2010   46.9120   28.5700 C.3   343  HIS343      0.0771
     67  CG        20.5340   46.4180   29.9110 C.ar  343  HIS343      0.0820
     68  ND1       21.8090   46.5230   30.4480 N.ar  343  HIS343     -0.2267
     69  CD2       19.7450   45.9760   30.8950 C.ar  343  HIS343      0.1154
     70  CE1       21.7790   46.1100   31.6980 C.ar  343  HIS343      0.1986
     71  NE2       20.5370   45.7570   31.9910 N.ar  343  HIS343     -0.2212
     72  N         21.6700   52.4130   27.3490 N.3   346  MET346     -0.1245
     73  CA        22.9000   52.5910   28.1340 C.3   346  MET346      0.1570
     74  C         24.0690   52.8010   27.1560 C.2   346  MET346      0.2261
     75  O         24.0080   52.3810   25.9860 O.2   346  MET346     -0.2867
     76  CB        23.1460   51.4010   29.0600 C.3   346  MET346      0.0387
     77  CG        22.1130   51.2340   30.1820 C.3   346  MET346      0.0595
     78  SD        22.5040   49.8600   31.2740 S.3   346  MET346     -0.1393
     79  CE        21.0630   49.9300   32.3380 C.3   346  MET346      0.0692
     80  N         33.1480   49.8490   29.5530 N.3   351  LEU351     -0.1231
     81  CA        32.8450   48.9800   30.6560 C.3   351  LEU351      0.1693
     82  C         32.4640   49.8010   31.8470 C.2   351  LEU351      0.2592
     83  O         33.1020   50.7720   32.1310 O.2   351  LEU351     -0.2718
     84  CB        34.0790   48.1720   31.0440 C.3   351  LEU351      0.0284
     85  CG        34.5610   47.0280   30.1600 C.3   351  LEU351      0.0019
     86  CD1       36.1260   47.0460   30.2040 C.3   351  LEU351      0.0001
     87  CD2       33.9920   45.7130   30.6160 C.3   351  LEU351      0.0001
     88  N         31.4310   49.3860   32.5560 N.am  352  SER352     -0.1952
     89  CA        30.9470   50.0810   33.7480 C.3   352  SER352      0.1924
     90  C         31.8580   49.8120   34.9400 C.2   352  SER352      0.2314
     91  O         32.1470   48.6580   35.2350 O.2   352  SER352     -0.2863
     92  CB        29.5390   49.5930   34.0720 C.3   352  SER352      0.2116
     93  OG        29.1260   50.0030   35.3650 O.3   352  SER352     -0.2180
     94  N         31.0900   49.9680   37.9080 N.3   354  ASN354     -0.1225
     95  CA        30.3390   49.3400   38.9470 C.3   354  ASN354      0.1785
     96  C         30.3840   47.8280   38.7940 C.2   354  ASN354      0.2597
     97  O         29.9550   47.1490   39.6770 O.2   354  ASN354     -0.2718
     98  CB        28.8690   49.7580   38.8110 C.3   354  ASN354      0.1169
     99  CG        28.7010   51.2480   38.9030 C.2   354  ASN354      0.2627
    100  OD1       28.2390   51.9020   37.9450 O.2   354  ASN354     -0.2716
    101  ND2       29.1230   51.8160   40.0510 N.am  354  ASN354     -0.0877
    102  N         30.7830   47.3520   37.6290 N.am  355  SER355     -0.1952
    103  CA        30.6080   45.9560   37.2900 C.3   355  SER355      0.1924
    104  C         31.8080   45.1170   37.7180 C.2   355  SER355      0.2314
    105  O         31.6460   43.9110   37.9640 O.2   355  SER355     -0.2863
    106  CB        30.3130   45.7700   35.8170 C.3   355  SER355      0.2116
    107  OG        31.4540   46.0960   35.0340 O.3   355  SER355     -0.2180
    108  N          7.5270   48.7510   37.7320 N.3   425  TYR425     -0.1241
    109  CA         8.6930   48.3030   38.5050 C.3   425  TYR425      0.1605
    110  C          8.5330   46.7630   38.8040 C.2   425  TYR425      0.2264
    111  O          9.4240   45.9870   38.6020 O.2   425  TYR425     -0.2867
    112  CB         8.7890   49.0430   39.8100 C.3   425  TYR425      0.0534
    113  CG         9.8560   48.4020   40.7040 C.ar  425  TYR425     -0.0201
    114  CD1       11.2070   48.3460   40.2810 C.ar  425  TYR425     -0.0009
    115  CD2        9.5160   47.8500   41.9550 C.ar  425  TYR425     -0.0009
    116  CE1       12.1790   47.7160   41.0770 C.ar  425  TYR425      0.0417
    117  CE2       10.4590   47.2390   42.7650 C.ar  425  TYR425      0.0417
    118  CZ        11.7990   47.1820   42.3040 C.ar  425  TYR425      0.1957
    119  OH        12.6990   46.5680   43.0980 O.3   425  TYR425     -0.2866
    120  N          8.9710   44.6620   35.5890 N.3   428  LEU428     -0.1245
    121  CA        10.3550   44.6210   35.1340 C.3   428  LEU428      0.1561
    122  C         11.1890   43.6830   36.0090 C.2   428  LEU428      0.2260
    123  O         12.0330   42.9510   35.5140 O.2   428  LEU428     -0.2867
    124  CB        11.0030   46.0500   35.2530 C.3   428  LEU428      0.0270
    125  CG        10.4330   47.0200   34.2960 C.3   428  LEU428      0.0019
    126  CD1       10.9600   48.5060   34.5790 C.3   428  LEU428      0.0001
    127  CD2       10.8130   46.6300   32.9130 C.3   428  LEU428      0.0001
    128  N         10.2330   39.8120   35.6560 N.3   431  GLU431     -0.1231
    129  CA        10.8890   39.2250   34.5210 C.3   431  GLU431      0.1699
    130  C         12.4140   39.0980   34.6150 C.2   431  GLU431      0.2592
    131  O         12.9440   38.0740   34.2040 O.2   431  GLU431     -0.2718
    132  CB        10.4310   39.8040   33.1930 C.3   431  GLU431      0.0402
    133  CG         8.9180   39.8290   33.0400 C.3   431  GLU431      0.1161
    134  CD         8.2140   38.4430   33.0240 C.2   431  GLU431      0.3649
    135  OE1        8.8190   37.4330   32.6520 O.co2 431  GLU431     -0.2457
    136  OE2        7.0080   38.3780   33.4030 O.co2 431  GLU431     -0.2457
    137  N         13.1130   40.1030   35.1720 N.am  432  ALA432     -0.1980
    138  CA        14.5920   40.0320   35.3690 C.3   432  ALA432      0.1597
    139  C         14.9720   38.9550   36.3850 C.2   432  ALA432      0.2287
    140  O         16.0540   38.3300   36.2870 O.2   432  ALA432     -0.2864
    141  CB        15.1370   41.3580   35.8020 C.3   432  ALA432      0.0319
    142  N         16.4160   35.6630   35.4480 N.3   435  SER435     -0.1217
    143  CA        17.6970   35.5950   34.7950 C.3   435  SER435      0.1889
    144  C         18.7350   35.5430   35.8800 C.2   435  SER435      0.2288
    145  O         18.8810   36.4840   36.5670 O.2   435  SER435     -0.2866
    146  CB        17.8640   36.8650   33.9710 C.3   435  SER435      0.2089
    147  OG        19.1990   37.0330   33.5360 O.3   435  SER435     -0.2183
    148  N         21.8080   35.9500   35.5240 N.3   437  MET437     -0.1230
    149  CA        22.7250   37.0360   35.1050 C.3   437  MET437      0.1702
    150  C         22.2650   38.3740   35.6120 C.2   437  MET437      0.2589
    151  O         23.0390   39.0960   36.1900 O.2   437  MET437     -0.2718
    152  CB        22.7660   37.1510   33.5640 C.3   437  MET437      0.0401
    153  CG        23.9180   38.1140   32.9420 C.3   437  MET437      0.0596
    154  SD        23.6010   38.4750   31.2490 S.3   437  MET437     -0.1393
    155  CE        23.4920   36.8210   30.4200 C.3   437  MET437      0.0692
    156  N         20.9940   38.7160   35.3770 N.am  438  ALA438     -0.2033
    157  CA        20.3740   39.9170   35.9780 C.3   438  ALA438      0.1283
    158  C         20.4530   39.9470   37.5120 C.3   438  ALA438      0.2036
    159  O         20.8950   40.9610   38.1980 O.3   438  ALA438     -0.2185
    160  CB        18.8640   40.0430   35.4270 C.3   438  ALA438      0.0262
    161  N         24.2590   40.4840   38.5150 N.3   441  PHE441     -0.1227
    162  CA        24.9250   41.7660   38.1410 C.3   441  PHE441      0.1736
    163  C         24.1960   43.0100   38.5970 C.2   441  PHE441      0.2595
    164  O         24.8120   44.0990   38.7200 O.2   441  PHE441     -0.2718
    165  CB        25.2000   41.8050   36.6330 C.3   441  PHE441      0.0547
    166  CG        26.3460   40.9610   36.2510 C.ar  441  PHE441     -0.0202
    167  CD1       26.1360   39.6400   35.8130 C.ar  441  PHE441     -0.0042
    168  CD2       27.6850   41.4160   36.5140 C.ar  441  PHE441     -0.0042
    169  CE1       27.2580   38.7900   35.5250 C.ar  441  PHE441     -0.0003
    170  CE2       28.7900   40.5770   36.2400 C.ar  441  PHE441     -0.0003
    171  CZ        28.6150   39.2830   35.7770 C.ar  441  PHE441     -0.0000
    172  N         22.8750   42.8980   38.7650 N.am  442  HIS442     -0.1975
    173  CA        22.1300   43.9270   39.5430 C.3   442  HIS442      0.1656
    174  C         22.6010   44.1920   40.9380 C.2   442  HIS442      0.2291
    175  O         22.7430   45.3300   41.3470 O.2   442  HIS442     -0.2864
    176  CB        20.5980   43.7900   39.4150 C.3   442  HIS442      0.0771
    177  CG        20.1810   43.8550   37.9850 C.ar  442  HIS442      0.0820
    178  ND1       18.9660   43.4100   37.5200 N.ar  442  HIS442     -0.2267
    179  CD2       20.8310   44.3500   36.9080 C.ar  442  HIS442      0.1154
    180  CE1       18.9260   43.5640   36.1990 C.ar  442  HIS442      0.1986
    181  NE2       20.0200   44.1900   35.8200 N.ar  442  HIS442     -0.2212
    182  N         19.5410   48.9870   42.2920 N.3   447  THR447     -0.1203
    183  CA        20.0190   49.1270   40.8890 C.3   447  THR447      0.1994
    184  C         19.0090   49.2530   39.7420 C.2   447  THR447      0.2617
    185  O         19.0840   50.1450   38.8350 O.2   447  THR447     -0.2717
    186  CB        21.3810   48.4920   40.5600 C.3   447  THR447      0.1784
    187  OG1       21.3890   47.8050   39.3060 O.3   447  THR447     -0.2211
    188  CG2       21.9280   47.7980   41.6720 C.3   447  THR447      0.0376
    189  N         18.0220   48.3540   39.7820 N.am  448  MET448     -0.1979
    190  CA        16.9920   48.3940   38.7530 C.3   448  MET448      0.1605
    191  C         16.2630   49.7240   38.6850 C.2   448  MET448      0.2287
    192  O         15.8320   50.1710   37.6250 O.2   448  MET448     -0.2864
    193  CB        16.0450   47.1930   38.9250 C.3   448  MET448      0.0413
    194  CG        16.6960   46.0110   38.1640 C.3   448  MET448      0.0598
    195  SD        15.7700   44.5200   38.2010 S.3   448  MET448     -0.1393
    196  CE        14.7320   44.7490   36.8020 C.3   448  MET448      0.0692
    197  N         17.5990   52.4660   38.8220 N.3   450  SER450     -0.1202
    198  CA        18.4980   53.3220   38.0480 C.3   450  SER450      0.2020
    199  C         18.3150   53.1810   36.5790 C.2   450  SER450      0.2619
    200  O         18.8780   53.9380   35.7880 O.2   450  SER450     -0.2717
    201  CB        19.9790   52.9830   38.3760 C.3   450  SER450      0.2103
    202  OG        20.2390   53.4550   39.7020 O.3   450  SER450     -0.2182
    203  N         17.5410   52.2030   36.1580 N.am  451  GLY451     -0.1942
    204  CA        17.2980   52.1030   34.7220 C.3   451  GLY451      0.2014
    205  C         16.4350   53.2340   34.2010 C.2   451  GLY451      0.2639
    206  O         16.4200   53.5200   32.9830 O.2   451  GLY451     -0.2714
    207  N         15.6840   53.8400   35.1030 N.am  452  CYS452     -0.1967
    208  CA        14.9380   55.0360   34.7610 C.3   452  CYS452      0.1712
    209  C         15.5720   56.2310   35.4600 C.2   452  CYS452      0.2296
    210  O         15.9810   57.1470   34.8100 O.2   452  CYS452     -0.2864
    211  CB        13.4830   54.8490   35.1800 C.3   452  CYS452      0.0983
    212  SG        12.7370   53.4780   34.1340 S.3   452  CYS452     -0.0798
@<TRIPOS>BOND
     1    30    31    1
     2    31    32    1
     3    31    34    1
     4    32    33    2
     5    21    20    2
     6    75    74    2
     7    20    19    1
     8    23    22    1
     9    35    34    1
    10    35    36    1
    11    27    28    2
    12    27    26    1
    13    65    64    2
    14    74    73    1
    15    22    19    1
    16    22    24    1
    17    25    26    1
    18    19    18    1
    19    72    73    1
    20    64    63    1
    21    41    42    1
    22    37    36    1
    23    37    38    2
    24    18    10   am
    25    48    47   ar
    26     3     4    2
    27     3     2    1
    28     8     9    1
    29    26    29    1
    30    73    76    1
    31    10    11    2
    32    10     9    1
    33    40    38    1
    34    66    63    1
    35    66    67    1
    36    38    39    1
    37    63    62    1
    38     9    12    1
    39    52    53    2
    40    52    51    1
    41    47    49   ar
    42    47    46    1
    43    42    43    1
    44    42    45    1
    45    50    51    1
    46    50    43   am
    47    76    77    1
    48     1     2    1
    49    62    58   am
    50     2     5    1
    51     6     5    1
    52    54    51    1
    53    54    55    1
    54     5     7    1
    55    80    81    1
    56    43    44    2
    57    45    46    1
    58    56    57    1
    59    58    59    2
    60    58    57    1
    61    67    68   ar
    62    67    69   ar
    63    12    13    1
    64    85    86    1
    65    85    87    1
    66    85    84    1
    67    77    78    1
    68    57    60    1
    69   155   154    1
    70    68    70   ar
    71    81    84    1
    72    81    82    1
    73    15    13   ar
    74    15    17   ar
    75    69    71   ar
    76    13    14   ar
    77   154   153    1
    78    78    79    1
    79    70    71   ar
    80    60    61    1
    81    17    16   ar
    82    82    83    2
    83    82    88   am
    84    14    16   ar
    85    88    89    1
    86   135   134   ar
    87   127   125    1
    88   153   152    1
    89   206   205    2
    90   134   133    1
    91   134   136   ar
    92   133   132    1
    93   132   129    1
    94   147   146    1
    95   152   149    1
    96    89    92    1
    97    89    90    1
    98   146   143    1
    99    92    93    1
   100   212   211    1
   101   205   204    1
   102   205   207   am
   103   131   130    2
   104   125   126    1
   105   125   124    1
   106   129   130    1
   107   129   128    1
   108   130   137   am
   109   204   203    1
   110   208   207    1
   111   208   211    1
   112   208   209    1
   113   143   142    1
   114   143   144    1
   115   210   209    2
   116    90    91    2
   117   107   106    1
   118   149   148    1
   119   149   150    1
   120   121   124    1
   121   121   120    1
   122   121   122    1
   123   137   138    1
   124   138   141    1
   125   138   139    1
   126   156   150   am
   127   156   157    1
   128   160   157    1
   129   123   122    2
   130   169   171   ar
   131   169   167   ar
   132   150   151    2
   133   171   170   ar
   134   200   199    2
   135   167   166   ar
   136   106   103    1
   137   181   180   ar
   138   181   179   ar
   139   144   145    2
   140   157   158    1
   141   203   199   am
   142   180   178   ar
   143   170   168   ar
   144   166   168   ar
   145   166   165    1
   146   140   139    2
   147   199   198    1
   148   165   162    1
   149   196   195    1
   150   179   177   ar
   151   103   102    1
   152   103   104    1
   153   158   159    1
   154   178   177   ar
   155   192   191    2
   156   102    96   am
   157   104   105    2
   158   108   109    1
   159    94    95    1
   160   100    99    2
   161   177   176    1
   162   198   201    1
   163   198   197    1
   164   162   161    1
   165   162   163    1
   166   194   195    1
   167   194   193    1
   168   201   202    1
   169   109   110    1
   170   109   112    1
   171   163   164    2
   172   163   172   am
   173   111   110    2
   174   191   190    1
   175   190   193    1
   176   190   189    1
   177   172   173    1
   178    96    95    1
   179    96    97    2
   180    98    99    1
   181    98    95    1
   182   185   184    2
   183    99   101   am
   184   187   186    1
   185   176   173    1
   186   173   174    1
   187   184   189   am
   188   184   183    1
   189   112   113    1
   190   114   113   ar
   191   114   116   ar
   192   186   183    1
   193   186   188    1
   194   113   115   ar
   195   183   182    1
   196   174   175    2
   197   116   118   ar
   198   115   117   ar
   199   118   117   ar
   200   118   119    1
