@<TRIPOS>MOLECULE
tmp/1z1nA14.pdb
 198 191 0 0 0
SMALL
GASTEIGER

@<TRIPOS>ATOM
      1  N         14.9170   30.5230    2.6730 N.3     3  VAL3       -0.1231
      2  CA        15.9590   29.5890    3.1200 C.3     3  VAL3        0.1692
      3  C         16.3210   28.5270    2.0730 C.2     3  VAL3        0.2592
      4  O         17.4270   28.0020    2.0950 O.2     3  VAL3       -0.2718
      5  CB        15.5920   28.9260    4.5010 C.3     3  VAL3        0.0266
      6  CG1       15.2190   29.9890    5.5020 C.3     3  VAL3        0.0020
      7  CG2       14.4610   27.8950    4.3830 C.3     3  VAL3        0.0020
      8  N         15.3790   28.2300    1.1670 N.am    4  ASP4       -0.1960
      9  CA        15.5940   27.2990    0.0540 C.3     4  ASP4        0.1840
     10  C         16.3350   27.9170   -1.1450 C.2     4  ASP4        0.2622
     11  O         16.7430   27.1800   -2.0470 O.2     4  ASP4       -0.2715
     12  CB        14.2890   26.5950   -0.3690 C.3     4  ASP4        0.1450
     13  CG        13.3380   27.5050   -1.1630 C.2     4  ASP4        0.3671
     14  OD1       12.9950   28.5800   -0.6460 O.co2   4  ASP4       -0.2456
     15  OD2       12.9100   27.1310   -2.2940 O.co2   4  ASP4       -0.2456
     16  N         16.5240   29.2410   -1.1450 N.am    5  ALA5       -0.1963
     17  CA        17.2680   29.9050   -2.1900 C.3     5  ALA5        0.1728
     18  C         18.7390   29.5140   -2.1700 C.2     5  ALA5        0.2616
     19  O         19.4360   29.7270   -1.1760 O.2     5  ALA5       -0.2715
     20  CB        17.1360   31.4210   -2.0860 C.3     5  ALA5        0.0334
     21  N         19.2130   28.9590   -3.2750 N.am    6  ILE6       -0.1977
     22  CA        20.6280   28.6640   -3.4580 C.3     6  ILE6        0.1596
     23  C         21.1880   29.5790   -4.5450 C.2     6  ILE6        0.2287
     24  O         20.7130   29.5650   -5.6950 O.2     6  ILE6       -0.2864
     25  CB        20.8380   27.2000   -3.8910 C.3     6  ILE6        0.0276
     26  CG1       20.1940   26.2560   -2.8820 C.3     6  ILE6        0.0022
     27  CG2       22.3160   26.8830   -4.0890 C.3     6  ILE6        0.0022
     28  CD1       19.9560   24.8580   -3.4070 C.3     6  ILE6        0.0001
     29  N         14.8810   25.7110   -4.1620 N.3    26  HIS26      -0.1241
     30  CA        14.9540   24.2850   -3.9430 C.3    26  HIS26       0.1621
     31  C         13.5850   23.7100   -3.6760 C.2    26  HIS26       0.2264
     32  O         13.3200   22.5310   -3.9810 O.2    26  HIS26      -0.2867
     33  CB        15.9280   23.9830   -2.7870 C.3    26  HIS26       0.0745
     34  CG        16.6370   22.6880   -2.9440 C.ar   26  HIS26       0.0817
     35  ND1       16.0850   21.4850   -2.5640 N.ar   26  HIS26      -0.2268
     36  CD2       17.8450   22.3980   -3.4820 C.ar   26  HIS26       0.1154
     37  CE1       16.9330   20.5070   -2.8480 C.ar   26  HIS26       0.1986
     38  NE2       18.0030   21.0390   -3.4210 N.ar   26  HIS26      -0.2212
     39  N         20.6190   34.0930    0.0990 N.3   105  GLU105     -0.1245
     40  CA        20.2720   32.7480    0.5690 C.3   105  GLU105      0.1567
     41  C         19.6210   32.8930    1.9630 C.2   105  GLU105      0.2260
     42  O         20.2770   33.2750    2.9390 O.2   105  GLU105     -0.2867
     43  CB        21.4950   31.8040    0.5450 C.3   105  GLU105      0.0388
     44  CG        22.0330   31.5090   -0.8820 C.3   105  GLU105      0.1160
     45  CD        23.3970   30.8170   -0.9000 C.2   105  GLU105      0.3649
     46  OE1       24.2700   31.1690   -0.0760 O.co2 105  GLU105     -0.2457
     47  OE2       23.6150   29.9300   -1.7530 O.co2 105  GLU105     -0.2457
     48  N         18.7280   31.0350    4.4240 N.3   107  ALA107     -0.1231
     49  CA        19.4690   30.3390    5.4640 C.3   107  ALA107      0.1694
     50  C         20.6950   31.0870    6.0170 C.2   107  ALA107      0.2592
     51  O         21.1100   30.8390    7.1490 O.2   107  ALA107     -0.2718
     52  CB        19.8720   28.9830    4.9400 C.3   107  ALA107      0.0304
     53  N         21.2580   32.0010    5.2250 N.am  108  THR108     -0.1953
     54  CA        22.3840   32.8700    5.6430 C.3   108  THR108      0.1897
     55  C         21.9300   33.9490    6.6650 C.2   108  THR108      0.2313
     56  O         22.7400   34.6340    7.2920 O.2   108  THR108     -0.2863
     57  CB        23.0370   33.5300    4.3800 C.3   108  THR108      0.1794
     58  OG1       24.3990   33.8740    4.6210 O.3   108  THR108     -0.2208
     59  CG2       22.3020   34.7590    3.9690 C.3   108  THR108      0.0378
     60  N         21.2260   29.5670   12.5320 N.3   112  LYS112     -0.1231
     61  CA        21.9070   28.3300   12.2050 C.3   112  LYS112      0.1678
     62  C         21.2860   27.1040   12.8160 C.2   112  LYS112      0.2434
     63  O         20.9900   27.0890   14.0160 O.2   112  LYS112     -0.2733
     64  CB        23.3400   28.3680   12.7040 C.3   112  LYS112      0.0284
     65  CG        24.3190   28.9060   11.7250 C.3   112  LYS112      0.0035
     66  CD        24.2050   30.4280   11.5420 C.3   112  LYS112      0.0206
     67  CE        25.4350   30.9630   10.7770 C.3   112  LYS112      0.1093
     68  NZ        25.0330   31.8050    9.6000 N.3   112  LYS112     -0.1314
     69  N         21.0810   26.0500   11.9900 N.am  113  PRO113     -0.2718
     70  CA        20.8900   24.7440   12.5860 C.3   113  PRO113      0.1535
     71  C         22.1710   24.4060   13.3540 C.2   113  PRO113      0.2599
     72  O         23.2510   24.6580   12.8590 O.2   113  PRO113     -0.2715
     73  CB        20.7070   23.8260   11.3720 C.3   113  PRO113      0.0310
     74  CG        21.1680   24.5880   10.2180 C.3   113  PRO113      0.0237
     75  CD        20.9980   26.0060   10.5170 C.3   113  PRO113      0.0939
     76  N         22.0330   23.9010   14.5760 N.am  114  SER114     -0.1950
     77  CA        23.1720   23.3940   15.3460 C.3   114  SER114      0.1924
     78  C         22.7150   22.1800   16.1290 C.2   114  SER114      0.2314
     79  O         21.5060   21.9780   16.2610 O.2   114  SER114     -0.2863
     80  CB        23.6440   24.4580   16.3080 C.3   114  SER114      0.2116
     81  OG        22.5380   24.9430   17.0510 O.3   114  SER114     -0.2180
     82  N         33.3600   22.5720   13.1020 N.3   164  VAL164     -0.1245
     83  CA        33.9060   23.8080   12.5790 C.3   164  VAL164      0.1561
     84  C         35.3740   24.0190   12.9450 C.2   164  VAL164      0.2260
     85  O         35.9790   24.9920   12.5230 O.2   164  VAL164     -0.2867
     86  CB        33.0330   25.0250   12.9740 C.3   164  VAL164      0.0252
     87  CG1       33.5210   26.2630   12.3160 C.3   164  VAL164      0.0019
     88  CG2       31.5680   24.8110   12.4950 C.3   164  VAL164      0.0019
     89  N         34.2430   28.1560    6.9520 N.3   169  GLN169     -0.1245
     90  CA        33.5570   28.9850    5.9810 C.3   169  GLN169      0.1566
     91  C         34.3010   28.9950    4.6300 C.2   169  GLN169      0.2260
     92  O         33.7450   28.6160    3.5960 O.2   169  GLN169     -0.2867
     93  CB        33.4900   30.3880    6.5920 C.3   169  GLN169      0.0367
     94  CG        32.9400   31.4660    5.7170 C.3   169  GLN169      0.0905
     95  CD        31.4530   31.5210    5.7770 C.2   169  GLN169      0.2608
     96  OE1       30.8490   31.2670    6.8260 O.2   169  GLN169     -0.2717
     97  NE2       30.8340   31.8400    4.6520 N.am  169  GLN169     -0.0878
     98  N         32.0530   24.0710    6.3070 N.3   183  THR183     -0.1203
     99  CA        30.9670   23.8050    7.2610 C.3   183  THR183      0.1994
    100  C         29.6500   23.4390    6.5690 C.2   183  THR183      0.2617
    101  O         29.0270   22.4140    6.8630 O.2   183  THR183     -0.2717
    102  CB        30.6630   25.0570    8.1370 C.3   183  THR183      0.1784
    103  OG1       31.8890   25.7300    8.4880 O.3   183  THR183     -0.2211
    104  CG2       29.9230   24.5940    9.3840 C.3   183  THR183      0.0376
    105  N         29.2540   24.2980    5.6380 N.am  184  ARG184     -0.1979
    106  CA        28.0600   24.1540    4.8390 C.3   184  ARG184      0.1597
    107  C         28.0610   22.8320    4.0910 C.2   184  ARG184      0.2287
    108  O         27.1160   22.0520    4.2070 O.2   184  ARG184     -0.2864
    109  CB        28.0410   25.3030    3.8660 C.3   184  ARG184      0.0334
    110  CG        26.7240   25.4610    3.1060 C.3   184  ARG184      0.0492
    111  CD        26.9150   26.4450    2.0070 C.3   184  ARG184      0.2205
    112  NE        25.8120   26.4030    1.0650 N.pl3 184  ARG184     -0.0865
    113  CZ        25.3910   27.4630    0.3800 C.cat 184  ARG184      0.5346
    114  NH1       26.0060   28.6320    0.5570 N.pl3 184  ARG184      0.1354
    115  NH2       24.3760   27.3360   -0.4890 N.pl3 184  ARG184      0.1354
    116  N         28.3130   19.6450    6.4800 N.3   187  SER187     -0.1202
    117  CA        27.0590   19.5070    7.2370 C.3   187  SER187      0.2020
    118  C         25.9460   18.8730    6.4270 C.2   187  SER187      0.2618
    119  O         25.2750   17.8910    6.8550 O.2   187  SER187     -0.2717
    120  CB        26.6110   20.8840    7.7470 C.3   187  SER187      0.2103
    121  OG        27.4600   21.3010    8.8330 O.3   187  SER187     -0.2182
    122  N         25.7200   19.4270    5.2450 N.am  188  HIS188     -0.1975
    123  CA        24.7920   18.7890    4.2970 C.3   188  HIS188      0.1656
    124  C         25.1170   17.3230    3.9880 C.2   188  HIS188      0.2291
    125  O         24.2410   16.4340    4.0540 O.2   188  HIS188     -0.2864
    126  CB        24.7500   19.6230    3.0640 C.3   188  HIS188      0.0771
    127  CG        24.2240   21.0020    3.3090 C.ar  188  HIS188      0.0820
    128  ND1       24.6460   22.1000    2.5970 N.ar  188  HIS188     -0.2267
    129  CD2       23.2680   21.4510    4.1540 C.ar  188  HIS188      0.1154
    130  CE1       23.9980   23.1770    3.0130 C.ar  188  HIS188      0.1986
    131  NE2       23.1530   22.8090    3.9550 N.ar  188  HIS188     -0.2212
    132  N         24.7480   15.4280    7.7100 N.3   191  CYS191     -0.1221
    133  CA        23.4930   15.4840    8.3920 C.3   191  CYS191      0.1808
    134  C         22.3860   14.9290    7.5310 C.2   191  CYS191      0.2601
    135  O         21.5630   14.1780    8.0040 O.2   191  CYS191     -0.2717
    136  CB        23.1400   16.9530    8.7300 C.3   191  CYS191      0.0970
    137  SG        24.4650   17.9840    9.4900 S.3   191  CYS191     -0.0800
    138  N         22.3240   15.3450    6.2790 N.am  192  VAL192     -0.1979
    139  CA        21.1270   15.0220    5.4860 C.3   192  VAL192      0.1595
    140  C         21.2120   13.5810    5.0240 C.2   192  VAL192      0.2287
    141  O         20.2440   12.8340    5.0720 O.2   192  VAL192     -0.2864
    142  CB        20.9060   16.0210    4.3640 C.3   192  VAL192      0.0276
    143  CG1       19.4340   15.9390    3.8540 C.3   192  VAL192      0.0022
    144  CG2       21.1800   17.4530    4.8750 C.3   192  VAL192      0.0022
    145  N         20.0540   11.5580    7.8580 N.3   195  HIS195     -0.1241
    146  CA        18.6210   11.6980    8.0440 C.3   195  HIS195      0.1621
    147  C         17.8700   10.9380    6.9220 C.2   195  HIS195      0.2264
    148  O         16.8090   10.3990    7.1460 O.2   195  HIS195     -0.2867
    149  CB        18.2090   13.1620    8.0090 C.3   195  HIS195      0.0745
    150  CG        18.6150   13.9780    9.2120 C.ar  195  HIS195      0.0817
    151  ND1       18.5580   15.3600    9.2050 N.ar  195  HIS195     -0.2268
    152  CD2       19.0810   13.6320   10.4390 C.ar  195  HIS195      0.1154
    153  CE1       18.9580   15.8300   10.3750 C.ar  195  HIS195      0.1986
    154  NE2       19.2790   14.8030   11.1430 N.ar  195  HIS195     -0.2212
    155  N         15.3030   16.2880    9.9240 N.3   207  PRO207     -0.2102
    156  CA        14.7940   16.8860    8.6870 C.3   207  PRO207      0.1504
    157  C         15.7390   16.7310    7.4890 C.2   207  PRO207      0.2576
    158  O         16.9810   16.6770    7.6530 O.2   207  PRO207     -0.2718
    159  CB        14.5960   18.3690    9.0470 C.3   207  PRO207      0.0282
    160  CG        15.0030   18.5410   10.4730 C.3   207  PRO207      0.0208
    161  CD        15.7470   17.3100   10.8890 C.3   207  PRO207      0.0893
    162  N         15.1530   16.6140    6.2910 N.am  208  VAL208     -0.1966
    163  CA        15.9450   16.4910    5.0510 C.3   208  VAL208      0.1727
    164  C         15.7430   17.6680    4.0770 C.2   208  VAL208      0.2616
    165  O         16.5130   17.8510    3.1280 O.2   208  VAL208     -0.2715
    166  CB        15.7100   15.1270    4.3260 C.3   208  VAL208      0.0290
    167  CG1       16.2890   13.9620    5.1310 C.3   208  VAL208      0.0023
    168  CG2       14.1980   14.9020    3.9940 C.3   208  VAL208      0.0023
    169  N         14.7240   18.4740    4.3210 N.am  209  LEU209     -0.1963
    170  CA        14.4800   19.6190    3.4580 C.3   209  LEU209      0.1728
    171  C         14.9230   20.9230    4.1210 C.2   209  LEU209      0.2616
    172  O         15.1210   20.9710    5.3300 O.2   209  LEU209     -0.2715
    173  CB        13.0040   19.6650    3.0260 C.3   209  LEU209      0.0311
    174  CG        12.5900   18.4440    2.2030 C.3   209  LEU209      0.0022
    175  CD1       11.0450   18.1850    2.1910 C.3   209  LEU209      0.0001
    176  CD2       13.1790   18.5930    0.7850 C.3   209  LEU209      0.0001
    177  N         15.0750   21.9730    3.3330 N.am  210  CYS210     -0.1968
    178  CA        15.6970   23.2120    3.7930 C.3   210  CYS210      0.1712
    179  C         14.9960   23.8370    4.9700 C.2   210  CYS210      0.2296
    180  O         15.6640   24.2630    5.9360 O.2   210  CYS210     -0.2864
    181  CB        15.7410   24.2400    2.6700 C.3   210  CYS210      0.0983
    182  SG        16.2680   23.5490    1.0920 S.3   210  CYS210     -0.0798
    183  N         15.5700   22.6050    8.7140 N.3   213  CYS213     -0.1221
    184  CA        16.7670   22.9310    9.4720 C.3   213  CYS213      0.1808
    185  C         17.0020   24.4270    9.6240 C.2   213  CYS213      0.2601
    186  O         17.6880   24.8280   10.5390 O.2   213  CYS213     -0.2717
    187  CB        18.0020   22.2640    8.8790 C.3   213  CYS213      0.0970
    188  SG        18.0570   20.4660    9.1430 S.3   213  CYS213     -0.0800
    189  N         16.4190   25.2420    8.7510 N.am  214  HIS214     -0.1975
    190  CA        16.8190   26.6370    8.6330 C.3   214  HIS214      0.1656
    191  C         15.7930   27.7150    8.9600 C.2   214  HIS214      0.2291
    192  O         16.1000   28.8990    8.8360 O.2   214  HIS214     -0.2864
    193  CB        17.3630   26.9110    7.2270 C.3   214  HIS214      0.0771
    194  CG        18.7010   26.3040    6.9760 C.ar  214  HIS214      0.0820
    195  ND1       19.8730   26.8970    7.3820 N.ar  214  HIS214     -0.2267
    196  CD2       19.0570   25.1520    6.3550 C.ar  214  HIS214      0.1154
    197  CE1       20.8930   26.1370    7.0310 C.ar  214  HIS214      0.1986
    198  NE2       20.4270   25.0790    6.3950 N.ar  214  HIS214     -0.2212
@<TRIPOS>BOND
     1    24    23    2
     2    23    22    1
     3    29    30    1
     4    27    25    1
     5    32    31    2
     6    30    31    1
     7    30    33    1
     8    25    22    1
     9    25    26    1
    10    36    38   ar
    11    36    34   ar
    12    22    21    1
    13    38    37   ar
    14    28    26    1
    15    21    18   am
    16    34    33    1
    17    34    35   ar
    18    37    35   ar
    19    15    13   ar
    20    17    18    1
    21    17    20    1
    22    17    16    1
    23    18    19    2
    24    11    10    2
    25    47    45   ar
    26    13    14   ar
    27    13    12    1
    28    16    10   am
    29    10     9    1
    30    45    44    1
    31    45    46   ar
    32    44    43    1
    33   115   113    1
    34    12     9    1
    35     9     8    1
    36    39    40    1
    37   113   114    1
    38   113   112    2
    39    43    40    1
    40    40    41    1
    41   176   174    1
    42   112   111    1
    43   182   181    1
    44     8     3   am
    45    41    42    2
    46   111   110    1
    47     3     4    2
    48     3     2    1
    49   175   174    1
    50   174   173    1
    51   128   130   ar
    52   128   127   ar
    53   181   178    1
    54     1     2    1
    55   130   131   ar
    56   173   170    1
    57   126   127    1
    58   126   123    1
    59   110   109    1
    60     2     5    1
    61   165   164    2
    62   127   129   ar
    63   177   178    1
    64   177   171   am
    65   170   171    1
    66   170   169    1
    67    92    91    2
    68   178   179    1
    69   143   142    1
    70   109   106    1
    71   131   129   ar
    72    59    57    1
    73   124   125    2
    74   124   123    1
    75   168   166    1
    76   164   169   am
    77   164   163    1
    78   107   108    2
    79   107   106    1
    80   171   172    2
    81   123   122    1
    82   166   163    1
    83   166   167    1
    84   142   144    1
    85   142   139    1
    86    57    58    1
    87    57    54    1
    88     7     5    1
    89    48    49    1
    90     5     6    1
    91    91    90    1
    92    97    95   am
    93   106   105    1
    94    52    49    1
    95   179   180    2
    96   140   141    2
    97   140   139    1
    98   163   162    1
    99    53    54    1
   100    53    50   am
   101   122   118   am
   102    49    50    1
   103   139   138    1
   104   105   100   am
   105    54    55    1
   106    94    95    1
   107    94    93    1
   108    95    96    2
   109    90    93    1
   110    90    89    1
   111    50    51    2
   112   138   134   am
   113   162   157   am
   114    98    99    1
   115   196   198   ar
   116   196   194   ar
   117   198   197   ar
   118   118   119    2
   119   118   117    1
   120   116   117    1
   121   100   101    2
   122   100    99    1
   123    55    56    2
   124   147   148    2
   125   147   146    1
   126   194   193    1
   127   194   195   ar
   128   197   195   ar
   129   193   190    1
   130   117   120    1
   131    99   102    1
   132   157   158    2
   133   157   156    1
   134   134   135    2
   135   134   133    1
   136   132   133    1
   137   120   121    1
   138   145   146    1
   139   149   146    1
   140   149   150    1
   141   102   103    1
   142   102   104    1
   143   133   136    1
   144   190   189    1
   145   190   191    1
   146   156   159    1
   147   156   155    1
   148   183   184    1
   149   136   137    1
   150   189   185   am
   151   192   191    2
   152   187   188    1
   153   187   184    1
   154   159   160    1
   155   151   150   ar
   156   151   153   ar
   157   150   152   ar
   158   184   185    1
   159    68    67    1
   160   185   186    2
   161   155   161    1
   162    74    75    1
   163    74    73    1
   164   153   154   ar
   165   152   154   ar
   166   160   161    1
   167    75    69    1
   168    67    66    1
   169    73    70    1
   170    66    65    1
   171    65    64    1
   172    69    70    1
   173    69    62   am
   174    61    60    1
   175    61    64    1
   176    61    62    1
   177    87    86    1
   178    88    86    1
   179    85    84    2
   180    83    84    1
   181    83    86    1
   182    83    82    1
   183    70    71    1
   184    62    63    2
   185    72    71    2
   186    71    76   am
   187    76    77    1
   188    77    78    1
   189    77    80    1
   190    78    79    2
   191    80    81    1
