@<TRIPOS>MOLECULE
tmp/1z1nA03.pdb
 219 213 0 0 0
SMALL
GASTEIGER

@<TRIPOS>ATOM
      1  N         13.1570   46.1050   46.2340 N.3   395  VAL395     -0.1245
      2  CA        12.7300   47.1330   47.1180 C.3   395  VAL395      0.1561
      3  C         11.2990   46.8010   47.5920 C.2   395  VAL395      0.2260
      4  O         10.4710   46.5660   46.7540 O.2   395  VAL395     -0.2867
      5  CB        12.7680   48.4310   46.3430 C.3   395  VAL395      0.0252
      6  CG1       12.2050   49.5220   47.1900 C.3   395  VAL395      0.0019
      7  CG2       14.2680   48.6830   45.8930 C.3   395  VAL395      0.0019
      8  N          7.7090   51.1970   49.5530 N.3   399  ASN399     -0.1225
      9  CA         8.7050   52.2230   49.1760 C.3   399  ASN399      0.1785
     10  C          8.7300   52.5980   47.7130 C.2   399  ASN399      0.2597
     11  O          9.5840   53.4150   47.2720 O.2   399  ASN399     -0.2718
     12  CB        10.0920   51.7140   49.5360 C.3   399  ASN399      0.1169
     13  CG        10.3110   51.6780   51.0290 C.2   399  ASN399      0.2627
     14  OD1       10.5120   50.6120   51.6140 O.2   399  ASN399     -0.2716
     15  ND2       10.2010   52.8430   51.6730 N.am  399  ASN399     -0.0877
     16  N          7.7860   52.0590   46.9490 N.am  400  VAL400     -0.1966
     17  CA         7.7680   52.3010   45.5200 C.3   400  VAL400      0.1712
     18  C          6.4130   52.9340   45.2680 C.2   400  VAL400      0.2458
     19  O          5.3890   52.2500   45.3450 O.2   400  VAL400     -0.2730
     20  CB         7.8850   50.9910   44.7550 C.3   400  VAL400      0.0289
     21  CG1        7.9340   51.2860   43.2300 C.3   400  VAL400      0.0023
     22  CG2        9.1790   50.2010   45.1890 C.3   400  VAL400      0.0023
     23  N          6.3760   54.2500   44.9880 N.am  401  PRO401     -0.2727
     24  CA         5.0930   54.8640   44.7140 C.3   401  PRO401      0.1402
     25  C          4.1680   54.0790   43.7400 C.2   401  PRO401      0.2269
     26  O          4.5840   53.5610   42.6870 O.2   401  PRO401     -0.2865
     27  CB         5.5060   56.2410   44.1500 C.3   401  PRO401      0.0296
     28  CG         6.7720   56.5170   44.9330 C.3   401  PRO401      0.0237
     29  CD         7.4880   55.2350   44.9090 C.3   401  PRO401      0.0939
     30  N          1.2410   57.5100   39.4260 N.3   404  LEU404     -0.1245
     31  CA         1.7060   58.8800   39.4520 C.3   404  LEU404      0.1561
     32  C          0.9570   59.5400   38.3370 C.2   404  LEU404      0.2260
     33  O          0.6150   58.9110   37.3650 O.2   404  LEU404     -0.2867
     34  CB         3.2000   58.9690   39.1690 C.3   404  LEU404      0.0270
     35  CG         4.1920   58.3580   40.2030 C.3   404  LEU404      0.0019
     36  CD1        5.6250   58.5800   39.8010 C.3   404  LEU404      0.0001
     37  CD2        3.9530   58.9120   41.6260 C.3   404  LEU404      0.0001
     38  N          1.5120   62.7180   35.8600 N.3   406  LEU406     -0.1245
     39  CA         2.6070   63.6010   35.5430 C.3   406  LEU406      0.1561
     40  C          2.1290   64.8790   34.8460 C.2   406  LEU406      0.2260
     41  O          1.6390   64.8150   33.7700 O.2   406  LEU406     -0.2867
     42  CB         3.6210   62.8540   34.6590 C.3   406  LEU406      0.0270
     43  CG         4.1920   61.5540   35.2720 C.3   406  LEU406      0.0019
     44  CD1        5.0090   60.8050   34.2130 C.3   406  LEU406      0.0001
     45  CD2        5.0440   61.9450   36.4720 C.3   406  LEU406      0.0001
     46  N          3.9980   68.1120   34.2670 N.3   408  TYR408     -0.1241
     47  CA         5.1240   69.0660   34.2660 C.3   408  TYR408      0.1605
     48  C          4.9380   70.1400   33.2390 C.2   408  TYR408      0.2264
     49  O          5.5220   71.1950   33.3770 O.2   408  TYR408     -0.2867
     50  CB         6.4740   68.3910   34.0040 C.3   408  TYR408      0.0534
     51  CG         6.9640   67.6350   35.1910 C.ar  408  TYR408     -0.0201
     52  CD1        6.6240   66.3080   35.3960 C.ar  408  TYR408     -0.0009
     53  CD2        7.7320   68.2850   36.1320 C.ar  408  TYR408     -0.0009
     54  CE1        7.0340   65.6100   36.5900 C.ar  408  TYR408      0.0417
     55  CE2        8.1650   67.6690   37.2720 C.ar  408  TYR408      0.0417
     56  CZ         7.8090   66.3170   37.5240 C.ar  408  TYR408      0.1957
     57  OH         8.3010   65.7940   38.7030 O.3   408  TYR408     -0.2866
     58  N          0.5970   57.1120   34.9340 N.3   419  PHE419     -0.1241
     59  CA         1.8830   56.3470   34.8740 C.3   419  PHE419      0.1605
     60  C          1.7860   55.3430   36.0320 C.2   419  PHE419      0.2264
     61  O          1.8600   55.7140   37.2110 O.2   419  PHE419     -0.2867
     62  CB         3.0800   57.3090   35.0380 C.3   419  PHE419      0.0534
     63  CG         4.4290   56.6240   35.2070 C.ar  419  PHE419     -0.0203
     64  CD1        4.8010   55.5550   34.4080 C.ar  419  PHE419     -0.0042
     65  CD2        5.3130   57.0620   36.1720 C.ar  419  PHE419     -0.0042
     66  CE1        6.0710   54.9730   34.5450 C.ar  419  PHE419     -0.0003
     67  CE2        6.5720   56.4670   36.3170 C.ar  419  PHE419     -0.0003
     68  CZ         6.9270   55.4150   35.5190 C.ar  419  PHE419     -0.0000
     69  N          3.5190   53.3200   37.9700 N.3   421  HIS421     -0.1241
     70  CA         4.8920   53.2460   38.4200 C.3   421  HIS421      0.1621
     71  C          5.1770   51.9200   39.1640 C.2   421  HIS421      0.2264
     72  O          6.0500   51.1840   38.7770 O.2   421  HIS421     -0.2867
     73  CB         5.1310   54.4990   39.3090 C.3   421  HIS421      0.0745
     74  CG         6.5150   54.6210   39.8490 C.ar  421  HIS421      0.0817
     75  ND1        6.8240   54.4200   41.1630 N.ar  421  HIS421     -0.2268
     76  CD2        7.6750   54.9790   39.2550 C.ar  421  HIS421      0.1154
     77  CE1        8.1020   54.6470   41.3660 C.ar  421  HIS421      0.1986
     78  NE2        8.6380   54.9720   40.2200 N.ar  421  HIS421     -0.2212
     79  N          4.7450   48.7750   36.9110 N.3   424  ILE424     -0.1231
     80  CA         5.8470   48.6650   35.9230 C.3   424  ILE424      0.1692
     81  C          7.1440   48.1550   36.6170 C.2   424  ILE424      0.2592
     82  O          7.7400   47.1920   36.1520 O.2   424  ILE424     -0.2718
     83  CB         6.1540   50.0380   35.2050 C.3   424  ILE424      0.0266
     84  CG1        4.9540   50.4170   34.3720 C.3   424  ILE424      0.0019
     85  CG2        7.3550   49.9250   34.3170 C.3   424  ILE424      0.0020
     86  CD1        4.8530   51.8760   33.9010 C.3   424  ILE424      0.0001
     87  N          7.5270   48.7510   37.7320 N.am  425  TYR425     -0.1976
     88  CA         8.6930   48.3030   38.5050 C.3   425  TYR425      0.1639
     89  C          8.5330   46.7630   38.8040 C.2   425  TYR425      0.2290
     90  O          9.4240   45.9870   38.6020 O.2   425  TYR425     -0.2864
     91  CB         8.7890   49.0430   39.8100 C.3   425  TYR425      0.0560
     92  CG         9.8560   48.4020   40.7040 C.ar  425  TYR425     -0.0198
     93  CD1       11.2070   48.3460   40.2810 C.ar  425  TYR425     -0.0009
     94  CD2        9.5160   47.8500   41.9550 C.ar  425  TYR425     -0.0009
     95  CE1       12.1790   47.7160   41.0770 C.ar  425  TYR425      0.0417
     96  CE2       10.4590   47.2390   42.7650 C.ar  425  TYR425      0.0417
     97  CZ        11.7990   47.1820   42.3040 C.ar  425  TYR425      0.1957
     98  OH        12.6990   46.5680   43.0980 O.3   425  TYR425     -0.2866
     99  N          8.9710   44.6620   35.5890 N.3   428  LEU428     -0.1245
    100  CA        10.3550   44.6210   35.1340 C.3   428  LEU428      0.1561
    101  C         11.1890   43.6830   36.0090 C.2   428  LEU428      0.2260
    102  O         12.0330   42.9510   35.5140 O.2   428  LEU428     -0.2867
    103  CB        11.0030   46.0500   35.2530 C.3   428  LEU428      0.0270
    104  CG        10.4330   47.0200   34.2960 C.3   428  LEU428      0.0019
    105  CD1       10.9600   48.5060   34.5790 C.3   428  LEU428      0.0001
    106  CD2       10.8130   46.6300   32.9130 C.3   428  LEU428      0.0001
    107  N         18.0220   48.3540   39.7820 N.3   448  MET448     -0.1230
    108  CA        16.9920   48.3940   38.7530 C.3   448  MET448      0.1702
    109  C         16.2630   49.7240   38.6850 C.2   448  MET448      0.2592
    110  O         15.8320   50.1710   37.6250 O.2   448  MET448     -0.2718
    111  CB        16.0450   47.1930   38.9250 C.3   448  MET448      0.0401
    112  CG        16.6960   46.0110   38.1640 C.3   448  MET448      0.0596
    113  SD        15.7700   44.5200   38.2010 S.3   448  MET448     -0.1393
    114  CE        14.7320   44.7490   36.8020 C.3   448  MET448      0.0692
    115  N         16.1210   50.3510   39.8220 N.am  449  CYS449     -0.1970
    116  CA        15.5170   51.6700   39.8870 C.3   449  CYS449      0.1712
    117  C         16.2550   52.6000   38.9090 C.2   449  CYS449      0.2296
    118  O         15.6080   53.4230   38.2610 O.2   449  CYS449     -0.2864
    119  CB        15.6380   52.1720   41.3090 C.3   449  CYS449      0.0983
    120  SG        14.7660   51.2690   42.5540 S.3   449  CYS449     -0.0798
    121  N         15.6840   53.8400   35.1030 N.3   452  CYS452     -0.1221
    122  CA        14.9380   55.0360   34.7610 C.3   452  CYS452      0.1808
    123  C         15.5720   56.2310   35.4600 C.2   452  CYS452      0.2601
    124  O         15.9810   57.1470   34.8100 O.2   452  CYS452     -0.2717
    125  CB        13.4830   54.8490   35.1800 C.3   452  CYS452      0.0970
    126  SG        12.7370   53.4780   34.1340 S.3   452  CYS452     -0.0800
    127  N         15.7660   56.1310   36.7670 N.am  453  HIS453     -0.1975
    128  CA        16.4170   57.1210   37.5690 C.3   453  HIS453      0.1656
    129  C         17.9290   57.0360   37.4930 C.2   453  HIS453      0.2291
    130  O         18.5810   56.7270   38.4530 O.2   453  HIS453     -0.2864
    131  CB        15.9800   56.9140   39.0210 C.3   453  HIS453      0.0771
    132  CG        14.4870   57.0440   39.2240 C.ar  453  HIS453      0.0820
    133  ND1       13.8130   58.2600   39.0810 N.ar  453  HIS453     -0.2267
    134  CD2       13.5510   56.1420   39.6020 C.ar  453  HIS453      0.1154
    135  CE1       12.5150   58.0690   39.3300 C.ar  453  HIS453      0.1986
    136  NE2       12.3330   56.7970   39.6350 N.ar  453  HIS453     -0.2212
    137  N         18.8530   55.7890   44.9320 N.3   459  SER459     -0.1202
    138  CA        18.1960   56.2500   46.1390 C.3   459  SER459      0.2020
    139  C         16.7540   55.7730   46.1260 C.2   459  SER459      0.2619
    140  O         16.2140   55.5450   45.0400 O.2   459  SER459     -0.2717
    141  CB        18.1610   57.7840   46.0590 C.3   459  SER459      0.2103
    142  OG        17.5010   58.2770   47.2030 O.3   459  SER459     -0.2182
    143  N         16.1200   55.7370   47.2940 N.am  460  LEU460     -0.1965
    144  CA        14.6770   55.4520   47.3690 C.3   460  LEU460      0.1728
    145  C         13.8550   56.7120   47.0310 C.2   460  LEU460      0.2616
    146  O         12.6560   56.6420   46.7940 O.2   460  LEU460     -0.2715
    147  CB        14.2900   54.9420   48.7590 C.3   460  LEU460      0.0311
    148  CG        14.8180   53.5450   49.1890 C.3   460  LEU460      0.0022
    149  CD1       14.6380   53.3610   50.7270 C.3   460  LEU460      0.0001
    150  CD2       14.0390   52.5060   48.4420 C.3   460  LEU460      0.0001
    151  N         14.5130   57.8670   47.0450 N.am  461  ASN461     -0.1959
    152  CA        13.8540   59.1010   46.6160 C.3   461  ASN461      0.1804
    153  C         14.7650   59.7300   45.6300 C.2   461  ASN461      0.2463
    154  O         15.5180   60.6930   45.9420 O.2   461  ASN461     -0.2730
    155  CB        13.6340   60.0040   47.8030 C.3   461  ASN461      0.1195
    156  CG        12.8760   59.3130   48.9290 C.2   461  ASN461      0.2630
    157  OD1       13.4560   58.7550   49.8610 O.2   461  ASN461     -0.2716
    158  ND2       11.5770   59.3940   48.8620 N.am  461  ASN461     -0.0877
    159  N         14.6430   59.2580   44.3700 N.am  462  PRO462     -0.2716
    160  CA        15.5370   59.7380   43.3510 C.3   462  PRO462      0.1521
    161  C         15.1330   61.1790   42.9520 C.2   462  PRO462      0.2440
    162  O         13.9850   61.5920   43.1910 O.2   462  PRO462     -0.2731
    163  CB        15.2370   58.7950   42.2210 C.3   462  PRO462      0.0310
    164  CG        13.7500   58.5160   42.4330 C.3   462  PRO462      0.0237
    165  CD        13.6360   58.3080   43.8360 C.3   462  PRO462      0.0939
    166  N         16.0680   61.9470   42.3780 N.am  463  PRO463     -0.2716
    167  CA        15.6280   63.2880   41.9560 C.3   463  PRO463      0.1536
    168  C         14.5000   63.2460   40.9010 C.2   463  PRO463      0.2598
    169  O         14.3400   62.2330   40.1960 O.2   463  PRO463     -0.2715
    170  CB        16.8440   63.8620   41.2930 C.3   463  PRO463      0.0310
    171  CG        18.0580   63.0020   41.7440 C.3   463  PRO463      0.0237
    172  CD        17.4630   61.6180   42.0010 C.3   463  PRO463      0.0939
    173  N         13.7920   64.3730   40.7120 N.am  464  LYS464     -0.1964
    174  CA        12.8760   64.5440   39.5980 C.3   464  LYS464      0.1728
    175  C         13.6320   64.6680   38.2680 C.2   464  LYS464      0.2616
    176  O         14.7620   65.2470   38.2110 O.2   464  LYS464     -0.2715
    177  CB        11.9690   65.7880   39.8260 C.3   464  LYS464      0.0311
    178  CG        10.5860   65.4880   40.4160 C.3   464  LYS464      0.0038
    179  CD        10.6030   65.2100   41.8460 C.3   464  LYS464      0.0206
    180  CE         9.6310   64.1060   42.1420 C.3   464  LYS464      0.1093
    181  NZ         9.5890   63.8170   43.5600 N.3   464  LYS464     -0.1314
    182  N         13.0410   64.1110   37.2100 N.am  465  CYS465     -0.1968
    183  CA        13.6060   64.1570   35.8530 C.3   465  CYS465      0.1712
    184  C         13.9540   65.6460   35.5290 C.2   465  CYS465      0.2296
    185  O         15.0400   65.9270   35.0680 O.2   465  CYS465     -0.2864
    186  CB        12.5770   63.6790   34.9020 C.3   465  CYS465      0.0983
    187  SG        12.1390   61.8210   35.2070 S.3   465  CYS465     -0.0798
    188  N         10.9970   62.6350   28.7580 N.3   487  PHE487     -0.1241
    189  CA         9.8800   61.7240   28.9850 C.3   487  PHE487      0.1605
    190  C          9.5520   60.9410   27.7760 C.2   487  PHE487      0.2264
    191  O          9.5300   59.6850   27.8030 O.2   487  PHE487     -0.2867
    192  CB         8.6330   62.4460   29.4700 C.3   487  PHE487      0.0534
    193  CG         8.6930   62.8670   30.9230 C.ar  487  PHE487     -0.0203
    194  CD1        8.8150   61.9390   31.9350 C.ar  487  PHE487     -0.0042
    195  CD2        8.5150   64.1850   31.2810 C.ar  487  PHE487     -0.0042
    196  CE1        8.8230   62.3000   33.2550 C.ar  487  PHE487     -0.0003
    197  CE2        8.5450   64.5480   32.6190 C.ar  487  PHE487     -0.0003
    198  CZ         8.6860   63.6170   33.5940 C.ar  487  PHE487     -0.0000
    199  N         12.4220   58.2540   26.9220 N.3   490  GLN490     -0.1231
    200  CA        12.5590   57.1710   27.8920 C.3   490  GLN490      0.1698
    201  C         11.2570   56.3390   27.9480 C.2   490  GLN490      0.2592
    202  O         11.3050   55.1200   27.8600 O.2   490  GLN490     -0.2718
    203  CB        12.9480   57.7380   29.2480 C.3   490  GLN490      0.0381
    204  CG        13.4330   56.6110   30.2480 C.3   490  GLN490      0.0905
    205  CD        13.8200   57.0740   31.5930 C.2   490  GLN490      0.2608
    206  OE1       12.9790   57.1180   32.4810 O.2   490  GLN490     -0.2717
    207  NE2       15.1490   57.3230   31.8260 N.am  490  GLN490     -0.0878
    208  N         10.1020   56.9780   28.0860 N.am  491  CYS491     -0.1970
    209  CA         8.8200   56.2270   28.1690 C.3   491  CYS491      0.1712
    210  C          8.6000   55.4020   26.9530 C.2   491  CYS491      0.2296
    211  O          8.5660   54.1490   27.0040 O.2   491  CYS491     -0.2864
    212  CB         7.6420   57.2330   28.2850 C.3   491  CYS491      0.0983
    213  SG         7.8780   58.1750   29.8110 S.3   491  CYS491     -0.0798
    214  N         11.2610   52.6930   25.8250 N.3   494  CYS494     -0.1235
    215  CA        11.1620   51.3830   26.4610 C.3   494  CYS494      0.1677
    216  C          9.9930   50.5690   25.9080 C.2   494  CYS494      0.2270
    217  O         10.0990   49.3450   25.6950 O.2   494  CYS494     -0.2867
    218  CB        11.0040   51.5840   27.9780 C.3   494  CYS494      0.0956
    219  SG        10.7990   49.8750   28.7780 S.3   494  CYS494     -0.0801
@<TRIPOS>BOND
     1   217   216    2
     2   214   215    1
     3   216   215    1
     4   215   218    1
     5   199   200    1
     6   210   211    2
     7   210   209    1
     8   190   191    2
     9   190   189    1
    10   202   201    2
    11   200   201    1
    12   200   203    1
    13   201   208   am
    14   218   219    1
    15   208   209    1
    16   209   212    1
    17   212   213    1
    18   188   189    1
    19   189   192    1
    20   203   204    1
    21   192   193    1
    22   204   205    1
    23   193   195   ar
    24   193   194   ar
    25   195   197   ar
    26   205   207   am
    27   205   206    2
    28   194   196   ar
    29   197   198   ar
    30   106   104    1
    31    48    49    2
    32    48    47    1
    33   196   198   ar
    34    41    40    2
    35    86    84    1
    36    50    47    1
    37    50    51    1
    38   126   125    1
    39    44    43    1
    40    47    46    1
    41   104   105    1
    42   104   103    1
    43    85    83    1
    44    84    83    1
    45    64    66   ar
    46    64    63   ar
    47    66    68   ar
    48    42    43    1
    49    42    39    1
    50   122   121    1
    51   122   125    1
    52   122   123    1
    53   124   123    2
    54    40    39    1
    55    59    58    1
    56    59    62    1
    57    59    60    1
    58   186   187    1
    59   186   183    1
    60    62    63    1
    61   185   184    2
    62   100   103    1
    63   100    99    1
    64   100   101    1
    65    51    52   ar
    66    51    53   ar
    67    83    80    1
    68    63    65   ar
    69    43    45    1
    70    52    54   ar
    71   123   127   am
    72   102   101    2
    73    68    67   ar
    74   184   183    1
    75    39    38    1
    76   183   182    1
    77    80    81    1
    78    80    79    1
    79    60    61    2
    80    53    55   ar
    81    82    81    2
    82    65    67   ar
    83    54    56   ar
    84    81    87   am
    85   127   128    1
    86   114   113    1
    87   182   175   am
    88    55    56   ar
    89    33    32    2
    90   129   128    1
    91   129   130    2
    92    56    57    1
    93   128   131    1
    94   110   109    2
    95    87    88    1
    96    69    70    1
    97   112   113    1
    98   112   111    1
    99   176   175    2
   100   118   117    2
   101   175   174    1
   102    32    31    1
   103    70    71    1
   104    70    73    1
   105    88    89    1
   106    88    91    1
   107    90    89    2
   108   109   108    1
   109   109   115   am
   110   108   111    1
   111   108   107    1
   112    72    71    2
   113   117   116    1
   114   131   132    1
   115   133   132   ar
   116   133   135   ar
   117    34    31    1
   118    34    35    1
   119   132   134   ar
   120    76    74   ar
   121    76    78   ar
   122    73    74    1
   123   135   136   ar
   124    30    31    1
   125   174   177    1
   126   174   173    1
   127   134   136   ar
   128    36    35    1
   129    91    92    1
   130   115   116    1
   131   177   178    1
   132    74    75   ar
   133   116   119    1
   134   169   168    2
   135    35    37    1
   136    78    77   ar
   137    93    92   ar
   138    93    95   ar
   139   178   179    1
   140    92    94   ar
   141   173   168   am
   142   168   167    1
   143    95    97   ar
   144    75    77   ar
   145   170   171    1
   146   170   167    1
   147   119   120    1
   148   171   172    1
   149   179   180    1
   150    94    96   ar
   151   167   166    1
   152   172   166    1
   153   180   181    1
   154   163   164    1
   155   163   160    1
   156    97    96   ar
   157    97    98    1
   158   166   161   am
   159   164   165    1
   160    26    25    2
   161   161   162    2
   162   161   160    1
   163    21    20    1
   164   160   159    1
   165    25    24    1
   166   165   159    1
   167    27    24    1
   168    27    28    1
   169   159   153   am
   170    24    23    1
   171    20    22    1
   172    20    17    1
   173    29    28    1
   174    29    23    1
   175   137   138    1
   176    23    18   am
   177   140   139    2
   178    18    19    2
   179    18    17    1
   180    17    16    1
   181   153   154    2
   182   153   152    1
   183     7     5    1
   184   141   138    1
   185   141   142    1
   186   139   138    1
   187   139   143   am
   188     1     2    1
   189     5     2    1
   190     5     6    1
   191   152   151    1
   192   152   155    1
   193     4     3    2
   194   146   145    2
   195    16    10   am
   196   145   151   am
   197   145   144    1
   198     2     3    1
   199    11    10    2
   200   143   144    1
   201   144   147    1
   202    10     9    1
   203   155   156    1
   204   150   148    1
   205   147   148    1
   206   158   156   am
   207   156   157    2
   208     9    12    1
   209     9     8    1
   210   148   149    1
   211    12    13    1
   212    13    14    2
   213    13    15   am
