@<TRIPOS>MOLECULE
tmp/1z1nA00.pdb
 217 210 0 0 0
SMALL
GASTEIGER

@<TRIPOS>ATOM
      1  N         39.9590   32.1580   37.6920 N.3   241  LEU241     -0.1245
      2  CA        40.6950   32.6760   36.5690 C.3   241  LEU241      0.1561
      3  C         41.5730   33.7840   37.1320 C.2   241  LEU241      0.2260
      4  O         41.0690   34.7850   37.6130 O.2   241  LEU241     -0.2867
      5  CB        39.7520   33.1740   35.4600 C.3   241  LEU241      0.0270
      6  CG        38.7630   32.0680   35.0780 C.3   241  LEU241      0.0019
      7  CD1       37.8720   32.5590   34.0200 C.3   241  LEU241      0.0001
      8  CD2       39.6080   30.8790   34.5040 C.3   241  LEU241      0.0001
      9  N         38.7400   35.7810   39.2910 N.3   264  VAL264     -0.1231
     10  CA        37.3610   35.5760   38.9360 C.3   264  VAL264      0.1692
     11  C         36.9880   34.0850   39.1940 C.2   264  VAL264      0.2592
     12  O         37.5640   33.1680   38.5830 O.2   264  VAL264     -0.2718
     13  CB        37.1910   35.8410   37.4500 C.3   264  VAL264      0.0266
     14  CG1       35.7540   35.4670   37.0070 C.3   264  VAL264      0.0020
     15  CG2       37.5770   37.4060   37.0700 C.3   264  VAL264      0.0020
     16  N         36.0070   33.8570   40.0470 N.am  265  ALA265     -0.1966
     17  CA        35.5090   32.4570   40.3180 C.3   265  ALA265      0.1728
     18  C         34.4260   32.1660   39.2640 C.2   265  ALA265      0.2616
     19  O         33.3790   32.7640   39.3550 O.2   265  ALA265     -0.2715
     20  CB        34.9060   32.4270   41.7080 C.3   265  ALA265      0.0334
     21  N         34.7050   31.3680   38.2170 N.am  266  PHE266     -0.1960
     22  CA        33.8230   31.2240   37.0830 C.3   266  PHE266      0.1771
     23  C         33.0570   29.8780   37.2230 C.2   266  PHE266      0.2619
     24  O         33.7140   28.8580   37.5160 O.2   266  PHE266     -0.2715
     25  CB        34.6550   31.2440   35.8180 C.3   266  PHE266      0.0574
     26  CG        33.8680   30.8800   34.5160 C.ar  266  PHE266     -0.0200
     27  CD1       32.7600   31.5480   34.1260 C.ar  266  PHE266     -0.0042
     28  CD2       34.2790   29.8270   33.7180 C.ar  266  PHE266     -0.0042
     29  CE1       32.0840   31.1410   32.9670 C.ar  266  PHE266     -0.0003
     30  CE2       33.5720   29.4120   32.5720 C.ar  266  PHE266     -0.0003
     31  CZ        32.5050   30.0360   32.2040 C.ar  266  PHE266     -0.0000
     32  N         31.7250   29.9150   37.0220 N.am  267  ASP267     -0.1971
     33  CA        30.8560   28.7400   37.0990 C.3   267  ASP267      0.1709
     34  C         30.7150   28.1150   35.7350 C.2   267  ASP267      0.2293
     35  O         29.7640   28.3730   34.9460 O.2   267  ASP267     -0.2864
     36  CB        29.4650   29.0550   37.6870 C.3   267  ASP267      0.1436
     37  CG        28.7550   27.7650   38.2140 C.2   267  ASP267      0.3671
     38  OD1       29.1030   26.6780   37.6620 O.co2 267  ASP267     -0.2456
     39  OD2       27.9630   27.8340   39.1870 O.co2 267  ASP267     -0.2456
     40  N         27.6350   25.8000   35.3680 N.3   270  ALA270     -0.1231
     41  CA        26.3740   26.5500   35.1260 C.3   270  ALA270      0.1694
     42  C         26.2710   27.0930   33.7270 C.2   270  ALA270      0.2592
     43  O         25.2120   27.0240   33.0800 O.2   270  ALA270     -0.2718
     44  CB        26.1220   27.6590   36.2310 C.3   270  ALA270      0.0304
     45  N         27.3690   27.6210   33.2050 N.am  271  HIS271     -0.1976
     46  CA        27.4190   28.0950   31.8450 C.3   271  HIS271      0.1656
     47  C         27.1590   27.1620   30.7540 C.2   271  HIS271      0.2291
     48  O         26.7260   27.5590   29.7280 O.2   271  HIS271     -0.2864
     49  CB        28.7480   28.8420   31.6080 C.3   271  HIS271      0.0771
     50  CG        28.6890   30.2570   32.1080 C.ar  271  HIS271      0.0820
     51  ND1       28.7730   30.5780   33.4420 N.ar  271  HIS271     -0.2267
     52  CD2       28.3750   31.4070   31.4580 C.ar  271  HIS271      0.1154
     53  CE1       28.5740   31.8770   33.5800 C.ar  271  HIS271      0.1986
     54  NE2       28.3470   32.3940   32.3910 N.ar  271  HIS271     -0.2212
     55  N         23.7150   27.5180   30.7910 N.3   274  PHE274     -0.1227
     56  CA        23.2130   28.9000   30.3920 C.3   274  PHE274      0.1736
     57  C         23.3950   29.1240   28.8850 C.2   274  PHE274      0.2595
     58  O         22.5870   29.7800   28.1760 O.2   274  PHE274     -0.2718
     59  CB        24.0320   29.9870   31.0810 C.3   274  PHE274      0.0547
     60  CG        23.9180   30.0550   32.5730 C.ar  274  PHE274     -0.0202
     61  CD1       24.9830   30.5580   33.3060 C.ar  274  PHE274     -0.0042
     62  CD2       22.7770   29.6780   33.2480 C.ar  274  PHE274     -0.0042
     63  CE1       24.9350   30.6880   34.6510 C.ar  274  PHE274     -0.0003
     64  CE2       22.7250   29.7270   34.6520 C.ar  274  PHE274     -0.0003
     65  CZ        23.7940   30.2530   35.3650 C.ar  274  PHE274     -0.0000
     66  N         24.5470   28.6800   28.3660 N.am  275  VAL275     -0.1980
     67  CA        24.8530   28.8520   26.9530 C.3   275  VAL275      0.1595
     68  C         24.2790   27.7190   26.1010 C.2   275  VAL275      0.2287
     69  O         23.7410   27.9860   25.0320 O.2   275  VAL275     -0.2864
     70  CB        26.3910   29.0750   26.7410 C.3   275  VAL275      0.0276
     71  CG1       26.6850   29.4110   25.2880 C.3   275  VAL275      0.0022
     72  CG2       26.8700   30.2230   27.6630 C.3   275  VAL275      0.0022
     73  N         30.3900   28.2940   21.3560 N.3   280  THR280     -0.1203
     74  CA        30.2150   29.7490   21.4690 C.3   280  THR280      0.1994
     75  C         31.3660   30.3490   22.2330 C.2   280  THR280      0.2618
     76  O         31.8320   31.4860   21.9560 O.2   280  THR280     -0.2717
     77  CB        28.8890   30.0520   22.1890 C.3   280  THR280      0.1784
     78  OG1       27.8480   29.5000   21.4050 O.3   280  THR280     -0.2211
     79  CG2       28.6460   31.6220   22.2650 C.3   280  THR280      0.0376
     80  N         31.8930   29.5850   23.2020 N.am  281  CYS281     -0.1969
     81  CA        33.0540   30.1350   23.9480 C.3   281  CYS281      0.1712
     82  C         34.3930   29.6250   23.3980 C.2   281  CYS281      0.2296
     83  O         35.3210   30.4290   23.1750 O.2   281  CYS281     -0.2864
     84  CB        32.9780   29.8200   25.4310 C.3   281  CYS281      0.0983
     85  SG        31.5130   30.5330   26.2730 S.3   281  CYS281     -0.0798
     86  N         38.1180   38.4680   27.9650 N.3   316  ALA316     -0.1245
     87  CA        37.1100   38.5310   28.9730 C.3   316  ALA316      0.1562
     88  C         36.1730   39.7340   28.8280 C.2   316  ALA316      0.2260
     89  O         35.0110   39.6520   29.2220 O.2   316  ALA316     -0.2867
     90  CB        37.7490   38.6240   30.2540 C.3   316  ALA316      0.0290
     91  N         30.1260   37.7700   21.4240 N.3   322  THR322     -0.1203
     92  CA        29.5680   36.8130   22.4440 C.3   322  THR322      0.1994
     93  C         30.6230   35.8560   23.0070 C.2   322  THR322      0.2619
     94  O         30.2930   34.9440   23.7550 O.2   322  THR322     -0.2717
     95  CB        28.4780   35.9360   21.8550 C.3   322  THR322      0.1784
     96  OG1       28.9570   35.3730   20.6100 O.3   322  THR322     -0.2211
     97  CG2       27.2370   36.7790   21.5820 C.3   322  THR322      0.0376
     98  N         31.8600   36.0220   22.5740 N.am  323  THR323     -0.1938
     99  CA        32.9850   35.1600   22.9920 C.3   323  THR323      0.2028
    100  C         33.4990   35.6070   24.3440 C.2   323  THR323      0.2643
    101  O         34.1020   34.8310   25.0720 O.2   323  THR323     -0.2714
    102  CB        34.1520   35.3010   22.0150 C.3   323  THR323      0.1808
    103  OG1       33.6690   35.2750   20.6790 O.3   323  THR323     -0.2208
    104  CG2       35.0550   34.1490   22.1550 C.3   323  THR323      0.0379
    105  N         33.2860   36.8740   24.7140 N.am  324  SER324     -0.1935
    106  CA        33.8210   37.3040   26.0050 C.3   324  SER324      0.2055
    107  C         32.6800   37.3200   26.9880 C.2   324  SER324      0.2643
    108  O         31.4850   37.4700   26.5130 O.2   324  SER324     -0.2714
    109  CB        34.3590   38.7200   25.8490 C.3   324  SER324      0.2130
    110  OG        33.2910   39.5700   25.4930 O.3   324  SER324     -0.2179
    111  N         33.0200   37.3500   28.3010 N.am  325  CYS325     -0.1967
    112  CA        32.0850   37.4140   29.3650 C.3   325  CYS325      0.1712
    113  C         31.2420   38.6560   29.2320 C.2   325  CYS325      0.2296
    114  O         30.0500   38.5500   29.3620 O.2   325  CYS325     -0.2864
    115  CB        32.7400   37.5230   30.7260 C.3   325  CYS325      0.0983
    116  SG        34.3060   36.5130   31.0840 S.3   325  CYS325     -0.0798
    117  N         29.2220   38.7930   25.7890 N.3   328  CYS328     -0.1221
    118  CA        28.0160   37.9710   25.7590 C.3   328  CYS328      0.1808
    119  C         26.9540   38.4820   26.6440 C.2   328  CYS328      0.2601
    120  O         25.8240   38.5360   26.2480 O.2   328  CYS328     -0.2717
    121  CB        28.3420   36.5460   26.1160 C.3   328  CYS328      0.0970
    122  SG        26.6800   35.6090   26.1920 S.3   328  CYS328     -0.0800
    123  N         27.2730   38.8850   27.8800 N.am  329  HIS329     -0.1975
    124  CA        26.2390   39.3190   28.7630 C.3   329  HIS329      0.1656
    125  C         25.5450   40.5500   28.2450 C.2   329  HIS329      0.2291
    126  O         24.2940   40.6860   28.3880 O.2   329  HIS329     -0.2864
    127  CB        26.7790   39.6760   30.1210 C.3   329  HIS329      0.0771
    128  CG        27.3750   38.5350   30.9020 C.ar  329  HIS329      0.0820
    129  ND1       28.0930   38.7480   32.0650 N.ar  329  HIS329     -0.2267
    130  CD2       27.3010   37.1850   30.7480 C.ar  329  HIS329      0.1154
    131  CE1       28.4370   37.5810   32.5900 C.ar  329  HIS329      0.1986
    132  NE2       27.9460   36.6250   31.8310 N.ar  329  HIS329     -0.2212
    133  N         23.1620   39.9310   25.3810 N.3   332  GLN332     -0.1245
    134  CA        21.8980   39.4320   25.8240 C.3   332  GLN332      0.1566
    135  C         21.0190   40.4840   26.4400 C.2   332  GLN332      0.2260
    136  O         19.8240   40.4820   26.1940 O.2   332  GLN332     -0.2867
    137  CB        22.1870   38.4260   26.8910 C.3   332  GLN332      0.0367
    138  CG        22.9290   37.3070   26.3220 C.3   332  GLN332      0.0905
    139  CD        22.0340   36.2520   26.1040 C.2   332  GLN332      0.2608
    140  OE1       21.7930   35.4630   27.0400 O.2   332  GLN332     -0.2717
    141  NE2       21.3830   36.2380   24.9020 N.am  332  GLN332     -0.0878
    142  N         17.3640   40.9360   24.6310 N.3   336  ARG336     -0.1245
    143  CA        16.1760   40.3930   25.2120 C.3   336  ARG336      0.1563
    144  C         15.2150   41.4890   25.5140 C.2   336  ARG336      0.2260
    145  O         15.6100   42.4490   26.1290 O.2   336  ARG336     -0.2867
    146  CB        16.4800   39.7000   26.5040 C.3   336  ARG336      0.0307
    147  CG        17.3890   38.4080   26.3450 C.3   336  ARG336      0.0489
    148  CD        17.5140   37.8410   27.6960 C.3   336  ARG336      0.2205
    149  NE        18.6210   36.9450   27.6080 N.pl3 336  ARG336     -0.0865
    150  CZ        19.1250   36.2530   28.6030 C.cat 336  ARG336      0.5346
    151  NH1       18.5860   36.3160   29.7710 N.pl3 336  ARG336      0.1354
    152  NH2       20.1660   35.4570   28.3700 N.pl3 336  ARG336      0.1354
    153  N         31.6740   42.4500   40.4430 N.3   358  GLN358     -0.1231
    154  CA        30.6740   41.3480   40.3420 C.3   358  GLN358      0.1698
    155  C         31.3170   40.1450   39.7210 C.2   358  GLN358      0.2592
    156  O         30.6880   39.0700   39.7170 O.2   358  GLN358     -0.2718
    157  CB        29.4260   41.7620   39.5380 C.3   358  GLN358      0.0381
    158  CG        28.7010   43.0450   40.1050 C.3   358  GLN358      0.0905
    159  CD        28.2660   42.7580   41.5290 C.2   358  GLN358      0.2608
    160  OE1       27.9160   41.6140   41.8370 O.2   358  GLN358     -0.2717
    161  NE2       28.3200   43.7400   42.4080 N.am  358  GLN358     -0.0878
    162  N         32.5170   40.3290   39.1310 N.am  359  CYS359     -0.1970
    163  CA        33.3780   39.1850   38.6280 C.3   359  CYS359      0.1712
    164  C         34.6920   38.9720   39.3750 C.2   359  CYS359      0.2296
    165  O         35.0850   37.8240   39.6670 O.2   359  CYS359     -0.2864
    166  CB        33.7510   39.3900   37.1940 C.3   359  CYS359      0.0983
    167  SG        32.3130   39.2020   36.0530 S.3   359  CYS359     -0.0798
    168  N         31.8040   30.4450   44.9410 N.3   385  LEU385     -0.1245
    169  CA        30.5250   30.5220   44.2540 C.3   385  LEU385      0.1561
    170  C         29.4040   30.0330   45.1550 C.2   385  LEU385      0.2260
    171  O         28.3310   30.6680   45.2620 O.2   385  LEU385     -0.2867
    172  CB        30.5910   29.7220   42.9940 C.3   385  LEU385      0.0270
    173  CG        31.3360   30.2670   41.7410 C.3   385  LEU385      0.0019
    174  CD1       31.7540   29.0500   40.9070 C.3   385  LEU385      0.0001
    175  CD2       30.3100   31.0170   40.9440 C.3   385  LEU385      0.0001
    176  N         16.4160   35.6630   35.4480 N.3   435  SER435     -0.1203
    177  CA        17.6970   35.5950   34.7950 C.3   435  SER435      0.2005
    178  C         18.7350   35.5430   35.8800 C.2   435  SER435      0.2461
    179  O         18.8810   36.4840   36.5670 O.2   435  SER435     -0.2732
    180  CB        17.8640   36.8650   33.9710 C.3   435  SER435      0.2103
    181  OG        19.1990   37.0330   33.5360 O.3   435  SER435     -0.2182
    182  N         19.4150   34.4080   36.1140 N.am  436  PRO436     -0.2717
    183  CA        20.4890   34.4420   37.0520 C.3   436  PRO436      0.1535
    184  C         21.5370   35.6160   36.7760 C.2   436  PRO436      0.2598
    185  O         22.0880   36.0770   37.7210 O.2   436  PRO436     -0.2715
    186  CB        21.1950   33.0840   36.7980 C.3   436  PRO436      0.0310
    187  CG        19.9510   32.1150   36.4870 C.3   436  PRO436      0.0237
    188  CD        19.2370   33.0480   35.5220 C.3   436  PRO436      0.0939
    189  N         21.8080   35.9500   35.5240 N.am  437  MET437     -0.1978
    190  CA        22.7250   37.0360   35.1050 C.3   437  MET437      0.1605
    191  C         22.2650   38.3740   35.6120 C.2   437  MET437      0.2287
    192  O         23.0390   39.0960   36.1900 O.2   437  MET437     -0.2864
    193  CB        22.7660   37.1510   33.5640 C.3   437  MET437      0.0413
    194  CG        23.9180   38.1140   32.9420 C.3   437  MET437      0.0598
    195  SD        23.6010   38.4750   31.2490 S.3   437  MET437     -0.1393
    196  CE        23.4920   36.8210   30.4200 C.3   437  MET437      0.0692
    197  N         22.4620   38.4160   39.4640 N.3   440  HIS440     -0.1226
    198  CA        23.8600   38.5600   39.9340 C.3   440  HIS440      0.1752
    199  C         24.3850   39.9810   39.7150 C.2   440  HIS440      0.2596
    200  O         24.9120   40.5800   40.6360 O.2   440  HIS440     -0.2718
    201  CB        24.8570   37.5790   39.2400 C.3   440  HIS440      0.0759
    202  CG        26.2560   37.6780   39.7980 C.ar  440  HIS440      0.0818
    203  ND1       26.6300   37.1430   41.0290 N.ar  440  HIS440     -0.2268
    204  CD2       27.3670   38.2720   39.3000 C.ar  440  HIS440      0.1154
    205  CE1       27.9010   37.4380   41.2680 C.ar  440  HIS440      0.1986
    206  NE2       28.3610   38.1580   40.2490 N.ar  440  HIS440     -0.2212
    207  N         24.2590   40.4840   38.5150 N.am  441  PHE441     -0.1976
    208  CA        24.9250   41.7660   38.1410 C.3   441  PHE441      0.1639
    209  C         24.1960   43.0100   38.5970 C.2   441  PHE441      0.2290
    210  O         24.8120   44.0990   38.7200 O.2   441  PHE441     -0.2864
    211  CB        25.2000   41.8050   36.6330 C.3   441  PHE441      0.0560
    212  CG        26.3460   40.9610   36.2510 C.ar  441  PHE441     -0.0200
    213  CD1       26.1360   39.6400   35.8130 C.ar  441  PHE441     -0.0042
    214  CD2       27.6850   41.4160   36.5140 C.ar  441  PHE441     -0.0042
    215  CE1       27.2580   38.7900   35.5250 C.ar  441  PHE441     -0.0003
    216  CE2       28.7900   40.5770   36.2400 C.ar  441  PHE441     -0.0003
    217  CZ        28.6150   39.2830   35.7770 C.ar  441  PHE441     -0.0000
@<TRIPOS>BOND
     1    96    95    1
     2   103   102    1
     3    73    74    1
     4    78    77    1
     5    91    92    1
     6    74    77    1
     7    74    75    1
     8    97    95    1
     9    95    92    1
    10    76    75    2
    11   102   104    1
    12   102    99    1
    13    77    79    1
    14    75    80   am
    15    92    93    1
    16    98    99    1
    17    98    93   am
    18    99   100    1
    19    93    94    2
    20    83    82    2
    21    80    81    1
    22    82    81    1
    23    81    84    1
    24   100   105   am
    25   100   101    2
    26   142   143    1
    27   105   106    1
    28   141   139   am
    29    69    68    2
    30   143   144    1
    31   143   146    1
    32    71    70    1
    33   133   134    1
    34    84    85    1
    35   110   109    1
    36   144   145    2
    37   118   117    1
    38   118   121    1
    39   118   119    1
    40   134   135    1
    41   134   137    1
    42   109   106    1
    43   106   107    1
    44    68    67    1
    45   139   138    1
    46   139   140    2
    47   121   122    1
    48   136   135    2
    49   120   119    2
    50   138   137    1
    51   147   146    1
    52   147   148    1
    53   108   107    2
    54   119   123   am
    55    70    67    1
    56    70    72    1
    57    67    66    1
    58   107   111   am
    59   149   148    1
    60   149   150    2
    61   123   124    1
    62    86    87    1
    63    58    57    2
    64   125   126    2
    65   125   124    1
    66   111   112    1
    67    66    57   am
    68   152   150    1
    69   150   151    1
    70   124   127    1
    71    88    87    1
    72    88    89    2
    73    57    56    1
    74    87    90    1
    75   113   114    2
    76   113   112    1
    77   112   115    1
    78    48    47    2
    79   127   128    1
    80    56    55    1
    81    56    59    1
    82   196   195    1
    83   115   116    1
    84   130   128   ar
    85   130   132   ar
    86    47    46    1
    87   128   129   ar
    88    59    60    1
    89   195   194    1
    90    52    50   ar
    91    52    54   ar
    92    49    46    1
    93    49    50    1
    94   132   131   ar
    95    46    45    1
    96   129   131   ar
    97    50    51   ar
    98    31    30   ar
    99    31    29   ar
   100    54    53   ar
   101    30    28   ar
   102    60    62   ar
   103    60    61   ar
   104   194   193    1
   105    29    27   ar
   106    43    42    2
   107    45    42   am
   108    62    64   ar
   109    61    63   ar
   110    51    53   ar
   111   181   180    1
   112   193   190    1
   113    28    26   ar
   114    42    41    1
   115   180   177    1
   116     7     6    1
   117    27    26   ar
   118     8     6    1
   119    26    25    1
   120    63    65   ar
   121    64    65   ar
   122   177   176    1
   123   177   178    1
   124    35    34    2
   125     6     5    1
   126   190   189    1
   127   190   191    1
   128    41    40    1
   129    41    44    1
   130     5     2    1
   131   188   182    1
   132   188   187    1
   133   189   184   am
   134   215   217   ar
   135   215   213   ar
   136   191   192    2
   137    34    33    1
   138   217   216   ar
   139   213   212   ar
   140    25    22    1
   141   178   182   am
   142   178   179    2
   143   167   166    1
   144   182   183    1
   145   216   214   ar
   146   212   214   ar
   147   212   211    1
   148   187   186    1
   149     2     3    1
   150     2     1    1
   151   211   208    1
   152   184   183    1
   153   184   185    2
   154   186   183    1
   155    14    13    1
   156    32    33    1
   157    32    23   am
   158    15    13    1
   159    22    23    1
   160    22    21    1
   161    33    36    1
   162     3     4    2
   163   166   163    1
   164    23    24    2
   165    13    10    1
   166    38    37   ar
   167    36    37    1
   168   208   207    1
   169   208   209    1
   170    37    39   ar
   171    21    18   am
   172   207   199   am
   173    12    11    2
   174   209   210    2
   175   163   162    1
   176   163   164    1
   177    10    11    1
   178    10     9    1
   179   162   155   am
   180    11    16   am
   181   201   202    1
   182   201   198    1
   183    18    19    2
   184    18    17    1
   185   204   202   ar
   186   204   206   ar
   187   164   165    2
   188   197   198    1
   189   157   158    1
   190   157   154    1
   191   199   198    1
   192   199   200    2
   193   156   155    2
   194   155   154    1
   195   202   203   ar
   196    16    17    1
   197   158   159    1
   198   206   205   ar
   199    17    20    1
   200   154   153    1
   201   174   173    1
   202   175   173    1
   203   203   205   ar
   204   159   160    2
   205   159   161   am
   206   173   172    1
   207   172   169    1
   208   169   168    1
   209   169   170    1
   210   170   171    2
