@<TRIPOS>MOLECULE
tmp/1z1nA11.pdb
 225 217 0 0 0
SMALL
GASTEIGER

@<TRIPOS>ATOM
      1  N         21.0810   26.0500   11.9900 N.3   113  PRO113     -0.2102
      2  CA        20.8900   24.7440   12.5860 C.3   113  PRO113      0.1504
      3  C         22.1710   24.4060   13.3540 C.2   113  PRO113      0.2576
      4  O         23.2510   24.6580   12.8590 O.2   113  PRO113     -0.2718
      5  CB        20.7070   23.8260   11.3720 C.3   113  PRO113      0.0282
      6  CG        21.1680   24.5880   10.2180 C.3   113  PRO113      0.0208
      7  CD        20.9980   26.0060   10.5170 C.3   113  PRO113      0.0893
      8  N         22.0330   23.9010   14.5760 N.am  114  SER114     -0.1938
      9  CA        23.1720   23.3940   15.3460 C.3   114  SER114      0.2055
     10  C         22.7150   22.1800   16.1290 C.2   114  SER114      0.2642
     11  O         21.5060   21.9780   16.2610 O.2   114  SER114     -0.2714
     12  CB        23.6440   24.4580   16.3080 C.3   114  SER114      0.2130
     13  OG        22.5380   24.9430   17.0510 O.3   114  SER114     -0.2179
     14  N         23.6470   21.3590   16.6160 N.am  115  LEU115     -0.1977
     15  CA        23.2990   20.3830   17.6490 C.3   115  LEU115      0.1596
     16  C         23.7390   20.9620   18.9650 C.2   115  LEU115      0.2287
     17  O         24.9630   20.9000   19.3100 O.2   115  LEU115     -0.2864
     18  CB        23.9850   19.0360   17.4330 C.3   115  LEU115      0.0297
     19  CG        23.9400   18.3470   16.0810 C.3   115  LEU115      0.0022
     20  CD1       24.4880   16.9200   16.2700 C.3   115  LEU115      0.0001
     21  CD2       22.5210   18.3230   15.5940 C.3   115  LEU115      0.0001
     22  N         23.4550   21.2180   23.1840 N.3   117  LEU117     -0.1245
     23  CA        23.7680   20.0710   24.0560 C.3   117  LEU117      0.1561
     24  C         22.5940   19.0280   24.1350 C.2   117  LEU117      0.2260
     25  O         22.7960   17.7820   24.1770 O.2   117  LEU117     -0.2867
     26  CB        24.2150   20.5600   25.4380 C.3   117  LEU117      0.0270
     27  CG        25.5260   21.3470   25.4650 C.3   117  LEU117      0.0019
     28  CD1       25.6580   21.8640   26.8360 C.3   117  LEU117      0.0001
     29  CD2       26.6460   20.4220   25.1080 C.3   117  LEU117      0.0001
     30  N         22.3330   17.3360   20.6250 N.3   120  HIS120     -0.1241
     31  CA        23.4740   16.4510   20.5750 C.3   120  HIS120      0.1621
     32  C         23.2550   15.1850   21.4140 C.2   120  HIS120      0.2264
     33  O         23.6790   14.1100   21.0240 O.2   120  HIS120     -0.2867
     34  CB        24.7360   17.1750   21.0370 C.3   120  HIS120      0.0745
     35  CG        25.9940   16.4170   20.7860 C.ar  120  HIS120      0.0817
     36  ND1       26.4880   15.4820   21.6780 N.ar  120  HIS120     -0.2268
     37  CD2       26.8770   16.4690   19.7600 C.ar  120  HIS120      0.1154
     38  CE1       27.6080   14.9710   21.1940 C.ar  120  HIS120      0.1986
     39  NE2       27.8600   15.5470   20.0280 N.ar  120  HIS120     -0.2212
     40  N         21.2380   12.5730   19.7360 N.3   123  HIS123     -0.1226
     41  CA        21.9230   11.9290   18.6650 C.3   123  HIS123      0.1752
     42  C         22.8330   10.8640   19.2250 C.2   123  HIS123      0.2595
     43  O         23.0630    9.8590   18.5810 O.2   123  HIS123     -0.2718
     44  CB        22.7680   12.9280   17.8700 C.3   123  HIS123      0.0759
     45  CG        21.9970   13.7270   16.8660 C.ar  123  HIS123      0.0818
     46  ND1       21.1460   14.7430   17.2220 N.ar  123  HIS123     -0.2268
     47  CD2       21.9330   13.6460   15.5160 C.ar  123  HIS123      0.1154
     48  CE1       20.6190   15.2840   16.1340 C.ar  123  HIS123      0.1986
     49  NE2       21.0920   14.6410   15.0860 N.ar  123  HIS123     -0.2212
     50  N         23.3880   11.1040   20.4090 N.am  124  VAL124     -0.1980
     51  CA        24.2670   10.1320   21.0150 C.3   124  VAL124      0.1595
     52  C         23.4380    8.8820   21.3660 C.2   124  VAL124      0.2287
     53  O         23.8360    7.7680   21.0760 O.2   124  VAL124     -0.2864
     54  CB        24.9730   10.7270   22.2500 C.3   124  VAL124      0.0276
     55  CG1       25.6920    9.6400   23.0090 C.3   124  VAL124      0.0022
     56  CG2       25.9430   11.8160   21.8120 C.3   124  VAL124      0.0022
     57  N         22.2100    7.0900   17.9620 N.3   127  GLU127     -0.1245
     58  CA        23.3290    6.3710   17.3740 C.3   127  GLU127      0.1567
     59  C         23.6930    5.1650   18.2210 C.2   127  GLU127      0.2260
     60  O         23.8890    4.0970   17.6950 O.2   127  GLU127     -0.2867
     61  CB        24.5310    7.2850   17.1930 C.3   127  GLU127      0.0388
     62  CG        25.6150    6.7770   16.2600 C.3   127  GLU127      0.1160
     63  CD        25.0970    6.2210   14.9080 C.2   127  GLU127      0.3649
     64  OE1       24.1050    6.7230   14.3040 O.co2 127  GLU127     -0.2457
     65  OE2       25.7170    5.2530   14.4480 O.co2 127  GLU127     -0.2457
     66  N         26.7450    4.3050   24.9590 N.3   135  GLU135     -0.1231
     67  CA        26.8920    5.6530   24.4080 C.3   135  GLU135      0.1699
     68  C         28.3150    6.0540   24.0080 C.2   135  GLU135      0.2592
     69  O         28.5120    6.5960   22.9480 O.2   135  GLU135     -0.2718
     70  CB        26.2340    6.6820   25.3270 C.3   135  GLU135      0.0402
     71  CG        24.6980    6.5770   25.3670 C.3   135  GLU135      0.1161
     72  CD        24.0320    7.6980   26.1810 C.2   135  GLU135      0.3649
     73  OE1       24.7470    8.6230   26.6220 O.co2 135  GLU135     -0.2457
     74  OE2       22.7990    7.6570   26.3770 O.co2 135  GLU135     -0.2457
     75  N         29.3110    5.7490   24.8290 N.am  136  ASP136     -0.1974
     76  CA        30.7030    6.1060   24.5180 C.3   136  ASP136      0.1709
     77  C         31.2290    5.4970   23.2060 C.2   136  ASP136      0.2293
     78  O         32.3000    5.8860   22.7100 O.2   136  ASP136     -0.2864
     79  CB        31.6390    5.7960   25.7040 C.3   136  ASP136      0.1436
     80  CG        32.2090    4.3640   25.6680 C.2   136  ASP136      0.3671
     81  OD1       31.5030    3.3930   26.0540 O.co2 136  ASP136     -0.2456
     82  OD2       33.3890    4.2240   25.2560 O.co2 136  ASP136     -0.2456
     83  N         29.3720    5.5760   20.3770 N.3   138  SER138     -0.1202
     84  CA        28.6530    6.3000   19.3260 C.3   138  SER138      0.2020
     85  C         29.4960    7.3340   18.5990 C.2   138  SER138      0.2619
     86  O         29.2000    7.6950   17.4660 O.2   138  SER138     -0.2717
     87  CB        27.4020    6.9760   19.9080 C.3   138  SER138      0.2103
     88  OG        27.7400    7.8870   20.9360 O.3   138  SER138     -0.2182
     89  N         30.5380    7.8150   19.2590 N.am  139  CYS139     -0.1969
     90  CA        31.2520    9.0040   18.8390 C.3   139  CYS139      0.1712
     91  C         31.9340    8.7610   17.5030 C.2   139  CYS139      0.2296
     92  O         31.7240    9.5150   16.5660 O.2   139  CYS139     -0.2864
     93  CB        32.2730    9.4300   19.8980 C.3   139  CYS139      0.0983
     94  SG        31.7040    9.3570   21.6590 S.3   139  CYS139     -0.0798
     95  N         30.6020    9.7410   13.9610 N.3   142  CYS142     -0.1221
     96  CA        30.4950   11.1000   13.4170 C.3   142  CYS142      0.1808
     97  C         31.7500   11.9470   13.5160 C.2   142  CYS142      0.2601
     98  O         31.9980   12.8060   12.6700 O.2   142  CYS142     -0.2717
     99  CB        29.3910   11.8400   14.1060 C.3   142  CYS142      0.0970
    100  SG        27.7090   11.2290   13.8300 S.3   142  CYS142     -0.0800
    101  N         32.5230   11.7160   14.5570 N.am  143  HIS143     -0.1975
    102  CA        33.7190   12.4940   14.8150 C.3   143  HIS143      0.1656
    103  C         34.9340   11.8490   14.2170 C.2   143  HIS143      0.2291
    104  O         35.1230   10.6480   14.3570 O.2   143  HIS143     -0.2864
    105  CB        33.9190   12.7010   16.3190 C.3   143  HIS143      0.0771
    106  CG        32.9920   13.7260   16.8940 C.ar  143  HIS143      0.0820
    107  ND1       33.2320   15.0850   16.8170 N.ar  143  HIS143     -0.2267
    108  CD2       31.8100   13.5850   17.5290 C.ar  143  HIS143      0.1154
    109  CE1       32.2260   15.7320   17.3740 C.ar  143  HIS143      0.1986
    110  NE2       31.3620   14.8420   17.8310 N.ar  143  HIS143     -0.2212
    111  N         37.0590   14.8270   20.5120 N.3   160  GLU160     -0.1231
    112  CA        35.7980   15.2720   19.9070 C.3   160  GLU160      0.1699
    113  C         35.5670   16.7510   20.1610 C.2   160  GLU160      0.2593
    114  O         36.0820   17.3050   21.0810 O.2   160  GLU160     -0.2718
    115  CB        34.6240   14.4440   20.4450 C.3   160  GLU160      0.0402
    116  CG        34.8460   12.9520   20.4180 C.3   160  GLU160      0.1161
    117  CD        35.6570   12.4340   21.6300 C.2   160  GLU160      0.3649
    118  OE1       36.2610   13.2300   22.3940 O.co2 160  GLU160     -0.2457
    119  OE2       35.6630   11.2090   21.8350 O.co2 160  GLU160     -0.2457
    120  N         34.7530   17.3920   19.3530 N.am  161  GLY161     -0.1942
    121  CA        34.6370   18.8320   19.3980 C.3   161  GLY161      0.2014
    122  C         33.8600   19.1720   18.1520 C.2   161  GLY161      0.2640
    123  O         33.5280   18.2930   17.3380 O.2   161  GLY161     -0.2714
    124  N         33.6000   20.4550   18.0220 N.am  162  SER162     -0.1935
    125  CA        32.9270   21.0440   16.9580 C.3   162  SER162      0.2055
    126  C         33.5820   20.7230   15.6200 C.2   162  SER162      0.2643
    127  O         34.8020   20.8710   15.4850 O.2   162  SER162     -0.2714
    128  CB        32.9540   22.5590   17.1800 C.3   162  SER162      0.2130
    129  OG        32.4050   23.1890   16.0530 O.3   162  SER162     -0.2179
    130  N         32.7480   20.3040   14.6590 N.am  163  CYS163     -0.1953
    131  CA        33.0930   20.1820   13.2400 C.3   163  CYS163      0.1843
    132  C         33.7690   21.3930   12.6720 C.2   163  CYS163      0.2625
    133  O         34.6510   21.2690   11.8520 O.2   163  CYS163     -0.2714
    134  CB        31.8160   19.9280   12.4010 C.3   163  CYS163      0.0997
    135  SG        30.8560   18.6160   13.0870 S.3   163  CYS163     -0.0797
    136  N         33.3600   22.5720   13.1020 N.am  164  VAL164     -0.1963
    137  CA        33.9060   23.8080   12.5790 C.3   164  VAL164      0.1727
    138  C         35.3740   24.0190   12.9450 C.2   164  VAL164      0.2616
    139  O         35.9790   24.9920   12.5230 O.2   164  VAL164     -0.2715
    140  CB        33.0330   25.0250   12.9740 C.3   164  VAL164      0.0290
    141  CG1       33.5210   26.2630   12.3160 C.3   164  VAL164      0.0023
    142  CG2       31.5680   24.8110   12.4950 C.3   164  VAL164      0.0023
    143  N         35.9760   23.1350   13.7390 N.am  165  TYR165     -0.1974
    144  CA        37.3860   23.3740   14.0510 C.3   165  TYR165      0.1639
    145  C         38.2590   22.9540   12.8620 C.2   165  TYR165      0.2290
    146  O         39.4280   23.3240   12.8050 O.2   165  TYR165     -0.2864
    147  CB        37.8380   22.6670   15.3150 C.3   165  TYR165      0.0560
    148  CG        37.2360   23.1420   16.6300 C.ar  165  TYR165     -0.0198
    149  CD1       36.8630   24.4790   16.8400 C.ar  165  TYR165     -0.0009
    150  CD2       37.1140   22.2590   17.6980 C.ar  165  TYR165     -0.0009
    151  CE1       36.3340   24.8950   18.0810 C.ar  165  TYR165      0.0417
    152  CE2       36.5960   22.6650   18.9110 C.ar  165  TYR165      0.0417
    153  CZ        36.2130   23.9830   19.1090 C.ar  165  TYR165      0.1957
    154  OH        35.6920   24.3700   20.3340 O.3   165  TYR165     -0.2866
    155  N         24.7480   15.4280    7.7100 N.3   191  CYS191     -0.1235
    156  CA        23.4930   15.4840    8.3920 C.3   191  CYS191      0.1677
    157  C         22.3860   14.9290    7.5310 C.2   191  CYS191      0.2270
    158  O         21.5630   14.1780    8.0040 O.2   191  CYS191     -0.2867
    159  CB        23.1400   16.9530    8.7300 C.3   191  CYS191      0.0956
    160  SG        24.4650   17.9840    9.4900 S.3   191  CYS191     -0.0801
    161  N         22.5210   11.1360    6.6100 N.3   194  CYS194     -0.1235
    162  CA        22.1100   10.2710    7.6960 C.3   194  CYS194      0.1677
    163  C         20.6150   10.3500    7.9290 C.2   194  CYS194      0.2270
    164  O         19.9620    9.3210    8.1670 O.2   194  CYS194     -0.2867
    165  CB        22.8630   10.5690    8.9840 C.3   194  CYS194      0.0956
    166  SG        22.5260    9.3460   10.3120 S.3   194  CYS194     -0.0801
    167  N         27.8420   16.6810   28.7220 N.3   231  LEU231     -0.1231
    168  CA        28.7540   16.3380   27.6770 C.3   231  LEU231      0.1693
    169  C         30.1630   16.5720   28.1750 C.2   231  LEU231      0.2592
    170  O         30.7170   17.6300   28.0210 O.2   231  LEU231     -0.2718
    171  CB        28.4340   17.0920   26.3770 C.3   231  LEU231      0.0284
    172  CG        29.3710   16.8990   25.1820 C.3   231  LEU231      0.0019
    173  CD1       29.4690   15.4740   24.7190 C.3   231  LEU231      0.0001
    174  CD2       28.9280   17.7760   24.0220 C.3   231  LEU231      0.0001
    175  N         30.7800   15.5350   28.7090 N.am  232  PHE232     -0.1962
    176  CA        31.9870   15.7280   29.5140 C.3   232  PHE232      0.1771
    177  C         33.2710   15.4950   28.7920 C.2   232  PHE232      0.2619
    178  O         33.5780   14.3560   28.3750 O.2   232  PHE232     -0.2715
    179  CB        31.9640   14.8500   30.7780 C.3   232  PHE232      0.0574
    180  CG        33.0970   15.1370   31.7080 C.ar  232  PHE232     -0.0200
    181  CD1       33.1340   16.3320   32.4290 C.ar  232  PHE232     -0.0042
    182  CD2       34.1510   14.2360   31.8340 C.ar  232  PHE232     -0.0042
    183  CE1       34.1760   16.5900   33.2440 C.ar  232  PHE232     -0.0003
    184  CE2       35.1700   14.5110   32.6910 C.ar  232  PHE232     -0.0003
    185  CZ        35.1830   15.6870   33.3880 C.ar  232  PHE232     -0.0000
    186  N         34.0630   16.5720   28.7020 N.am  233  ARG233     -0.1977
    187  CA        35.3580   16.5160   28.0080 C.3   233  ARG233      0.1597
    188  C         36.5380   16.9230   28.8780 C.2   233  ARG233      0.2287
    189  O         37.5270   17.3770   28.3710 O.2   233  ARG233     -0.2864
    190  CB        35.3030   17.3560   26.6940 C.3   233  ARG233      0.0334
    191  CG        34.4230   16.6540   25.5520 C.3   233  ARG233      0.0492
    192  CD        35.2080   15.8250   24.4310 C.3   233  ARG233      0.2205
    193  NE        36.5840   15.6460   24.8560 N.pl3 233  ARG233     -0.0865
    194  CZ        37.6680   16.1410   24.2560 C.cat 233  ARG233      0.5346
    195  NH1       37.5890   16.7960   23.1140 N.pl3 233  ARG233      0.1354
    196  NH2       38.8630   15.9210   24.7990 N.pl3 233  ARG233      0.1354
    197  N         25.7610   25.2620   24.5700 N.3   277  ASN277     -0.1225
    198  CA        26.7630   24.6240   23.7340 C.3   277  ASN277      0.1785
    199  C         28.1240   25.0320   24.2630 C.2   277  ASN277      0.2597
    200  O         28.1860   25.7820   25.2370 O.2   277  ASN277     -0.2718
    201  CB        26.6240   25.0290   22.2490 C.3   277  ASN277      0.1169
    202  CG        26.6060   26.5080   22.0590 C.2   277  ASN277      0.2627
    203  OD1       27.6260   27.1740   22.0830 O.2   277  ASN277     -0.2716
    204  ND2       25.4490   27.0300   21.8070 N.am  277  ASN277     -0.0877
    205  N         29.1860   24.5390   23.6140 N.am  278  CYS278     -0.1956
    206  CA        30.6040   24.7710   23.9850 C.3   278  CYS278      0.1843
    207  C         31.2840   25.7090   23.0170 C.2   278  CYS278      0.2625
    208  O         32.0900   26.5150   23.4710 O.2   278  CYS278     -0.2714
    209  CB        31.3930   23.4640   23.9370 C.3   278  CYS278      0.0997
    210  SG        30.5380   22.0710   24.6460 S.3   278  CYS278     -0.0797
    211  N         30.9770   25.5860   21.7030 N.am  279  VAL279     -0.1977
    212  CA        31.7150   26.3230   20.6960 C.3   279  VAL279      0.1596
    213  C         31.5160   27.8230   20.7920 C.2   279  VAL279      0.2287
    214  O         32.3730   28.5660   20.2650 O.2   279  VAL279     -0.2864
    215  CB        31.2920   26.1530   19.2350 C.3   279  VAL279      0.0276
    216  CG1       32.4320   25.8660   18.2400 C.3   279  VAL279      0.0022
    217  CG2       29.8410   25.7610   18.9650 C.3   279  VAL279      0.0022
    218  N         38.8330   22.9150   22.5730 N.3   291  LEU291     -0.1245
    219  CA        38.3090   23.1040   23.9250 C.3   291  LEU291      0.1561
    220  C         39.3970   23.5350   24.9420 C.2   291  LEU291      0.2260
    221  O         39.2200   23.5100   26.1530 O.2   291  LEU291     -0.2867
    222  CB        37.5470   21.8420   24.3540 C.3   291  LEU291      0.0270
    223  CG        36.2830   21.5110   23.5630 C.3   291  LEU291      0.0019
    224  CD1       35.8680   20.1530   23.9460 C.3   291  LEU291      0.0001
    225  CD2       35.1050   22.5360   23.8560 C.3   291  LEU291      0.0001
@<TRIPOS>BOND
     1   161   162    1
     2   157   158    2
     3   157   156    1
     4   162   163    1
     5   162   165    1
     6   155   156    1
     7   163   164    2
     8   156   159    1
     9   159   160    1
    10   165   166    1
    11     6     7    1
    12     6     5    1
    13     7     1    1
    14     5     2    1
    15   133   132    2
    16     1     2    1
    17   141   140    1
    18   134   135    1
    19   134   131    1
    20   142   140    1
    21   139   138    2
    22   137   138    1
    23   137   140    1
    24   137   136    1
    25     2     3    1
    26    98    97    2
    27   132   136   am
    28   132   131    1
    29   146   145    2
    30     4     3    2
    31   145   144    1
    32   138   143   am
    33   131   130    1
    34     3     8   am
    35    96    97    1
    36    96    95    1
    37    96    99    1
    38    97   101   am
    39   143   144    1
    40   100    99    1
    41   144   147    1
    42   103   104    2
    43   103   102    1
    44    64    63   ar
    45    65    63   ar
    46   101   102    1
    47     8     9    1
    48   130   126   am
    49   102   105    1
    50    63    62    1
    51    49    47   ar
    52    49    48   ar
    53   147   148    1
    54     9    10    1
    55     9    12    1
    56   127   126    2
    57    47    45   ar
    58    21    19    1
    59   126   125    1
    60   129   128    1
    61    19    20    1
    62    19    18    1
    63    10    11    2
    64    10    14   am
    65    48    46   ar
    66    62    61    1
    67    12    13    1
    68   105   106    1
    69    92    91    2
    70    14    15    1
    71   148   149   ar
    72   148   150   ar
    73   107   106   ar
    74   107   109   ar
    75   149   151   ar
    76    45    46   ar
    77    45    44    1
    78   106   108   ar
    79   125   128    1
    80   125   124    1
    81    61    58    1
    82   123   122    2
    83   109   110   ar
    84    58    57    1
    85    58    59    1
    86    18    15    1
    87    86    85    2
    88    91    90    1
    89   108   110   ar
    90    15    16    1
    91    60    59    2
    92   150   152   ar
    93    44    41    1
    94   124   122   am
    95   151   153   ar
    96   122   121    1
    97   216   215    1
    98    43    42    2
    99    85    89   am
   100    85    84    1
   101    41    42    1
   102    41    40    1
   103    90    89    1
   104    90    93    1
   105   152   153   ar
   106    16    17    2
   107   217   215    1
   108   153   154    1
   109    42    50   am
   110   215   212    1
   111    84    87    1
   112    84    83    1
   113   120   121    1
   114   120   113   am
   115    37    39   ar
   116    37    35   ar
   117    93    94    1
   118   112   113    1
   119   112   115    1
   120   112   111    1
   121    87    88    1
   122    39    38   ar
   123   113   114    2
   124   214   213    2
   125    50    51    1
   126   116   115    1
   127   116   117    1
   128    31    30    1
   129    31    34    1
   130    31    32    1
   131   212   213    1
   132   212   211    1
   133    35    34    1
   134    35    36   ar
   135    51    52    1
   136    51    54    1
   137    33    32    2
   138    53    52    2
   139    38    36   ar
   140   117   119   ar
   141   117   118   ar
   142   211   207   am
   143   204   202   am
   144    56    54    1
   145   202   203    2
   146   202   201    1
   147   201   198    1
   148    54    55    1
   149   218   219    1
   150    78    77    2
   151    69    68    2
   152   207   208    2
   153   207   206    1
   154   195   194    1
   155    22    23    1
   156    77    76    1
   157   223   225    1
   158   223   224    1
   159   223   222    1
   160   205   206    1
   161   205   199   am
   162   198   199    1
   163   198   197    1
   164   219   222    1
   165   219   220    1
   166   209   206    1
   167   209   210    1
   168    68    67    1
   169    68    75   am
   170   174   172    1
   171    23    24    1
   172    23    26    1
   173    24    25    2
   174   194   196    1
   175   194   193    2
   176   199   200    2
   177    67    66    1
   178    67    70    1
   179   192   193    1
   180   192   191    1
   181    76    75    1
   182    76    79    1
   183   173   172    1
   184   220   221    2
   185    29    27    1
   186   172   171    1
   187    82    80   ar
   188    70    71    1
   189    71    72    1
   190    26    27    1
   191    27    28    1
   192   191   190    1
   193    80    79    1
   194    80    81   ar
   195    72    74   ar
   196    72    73   ar
   197   171   168    1
   198   190   187    1
   199   168   169    1
   200   168   167    1
   201   187   186    1
   202   187   188    1
   203   170   169    2
   204   169   175   am
   205   189   188    2
   206   178   177    2
   207   186   177   am
   208   175   176    1
   209   177   176    1
   210   176   179    1
   211   179   180    1
   212   180   182   ar
   213   180   181   ar
   214   182   184   ar
   215   181   183   ar
   216   184   185   ar
   217   183   185   ar
