@<TRIPOS>MOLECULE
tmp/1z1nA04.pdb
 177 176 0 0 0
SMALL
GASTEIGER

@<TRIPOS>ATOM
      1  N         19.2580   51.8950   26.0950 N.3   345  PRO345     -0.2102
      2  CA        19.7680   53.2730   26.0260 C.3   345  PRO345      0.1504
      3  C         21.0960   53.4800   26.7540 C.2   345  PRO345      0.2576
      4  O         21.5800   54.6170   26.7810 O.2   345  PRO345     -0.2718
      5  CB        18.7140   54.0940   26.7930 C.3   345  PRO345      0.0282
      6  CG        17.5080   53.2400   26.9380 C.3   345  PRO345      0.0208
      7  CD        18.0490   51.7770   26.9080 C.3   345  PRO345      0.0893
      8  N         21.6700   52.4130   27.3490 N.am  346  MET346     -0.1966
      9  CA        22.9000   52.5910   28.1340 C.3   346  MET346      0.1736
     10  C         24.0690   52.8010   27.1560 C.2   346  MET346      0.2616
     11  O         24.0080   52.3810   25.9860 O.2   346  MET346     -0.2715
     12  CB        23.1460   51.4010   29.0600 C.3   346  MET346      0.0427
     13  CG        22.1130   51.2340   30.1820 C.3   346  MET346      0.0599
     14  SD        22.5040   49.8600   31.2740 S.3   346  MET346     -0.1393
     15  CE        21.0630   49.9300   32.3380 C.3   346  MET346      0.0692
     16  N         25.1320   53.4460   27.6160 N.am  347  GLN347     -0.1977
     17  CA        26.2690   53.6560   26.7170 C.3   347  GLN347      0.1601
     18  C         26.9250   52.3090   26.3200 C.2   347  GLN347      0.2287
     19  O         26.9700   51.3820   27.1330 O.2   347  GLN347     -0.2864
     20  CB        27.2680   54.7140   27.2700 C.3   347  GLN347      0.0394
     21  CG        27.9810   54.3760   28.5960 C.3   347  GLN347      0.0908
     22  CD        29.0220   53.2330   28.4480 C.2   347  GLN347      0.2608
     23  OE1       29.2540   52.4580   29.3740 O.2   347  GLN347     -0.2717
     24  NE2       29.6330   53.1440   27.2940 N.am  347  GLN347     -0.0878
     25  N         15.6840   53.8400   35.1030 N.3   452  CYS452     -0.1221
     26  CA        14.9380   55.0360   34.7610 C.3   452  CYS452      0.1808
     27  C         15.5720   56.2310   35.4600 C.2   452  CYS452      0.2601
     28  O         15.9810   57.1470   34.8100 O.2   452  CYS452     -0.2717
     29  CB        13.4830   54.8490   35.1800 C.3   452  CYS452      0.0970
     30  SG        12.7370   53.4780   34.1340 S.3   452  CYS452     -0.0800
     31  N         15.7660   56.1310   36.7670 N.am  453  HIS453     -0.1961
     32  CA        16.4170   57.1210   37.5690 C.3   453  HIS453      0.1787
     33  C         17.9290   57.0360   37.4930 C.2   453  HIS453      0.2620
     34  O         18.5810   56.7270   38.4530 O.2   453  HIS453     -0.2715
     35  CB        15.9800   56.9140   39.0210 C.3   453  HIS453      0.0785
     36  CG        14.4870   57.0440   39.2240 C.ar  453  HIS453      0.0821
     37  ND1       13.8130   58.2600   39.0810 N.ar  453  HIS453     -0.2267
     38  CD2       13.5510   56.1420   39.6020 C.ar  453  HIS453      0.1154
     39  CE1       12.5150   58.0690   39.3300 C.ar  453  HIS453      0.1986
     40  NE2       12.3330   56.7970   39.6350 N.ar  453  HIS453     -0.2212
     41  N         18.4530   57.3790   36.3470 N.am  454  HIS454     -0.1959
     42  CA        19.8410   57.1220   36.0600 C.3   454  HIS454      0.1787
     43  C         20.6840   58.3990   36.4010 C.2   454  HIS454      0.2620
     44  O         20.1420   59.4400   36.9180 O.2   454  HIS454     -0.2715
     45  CB        19.9620   56.7490   34.5780 C.3   454  HIS454      0.0785
     46  CG        19.5080   57.8160   33.6150 C.ar  454  HIS454      0.0821
     47  ND1       19.5370   57.6290   32.2460 N.ar  454  HIS454     -0.2267
     48  CD2       19.1320   59.1210   33.8010 C.ar  454  HIS454      0.1154
     49  CE1       19.1350   58.7440   31.6370 C.ar  454  HIS454      0.1986
     50  NE2       18.9200   59.6570   32.5530 N.ar  454  HIS454     -0.2212
     51  N         22.0040   58.2270   36.2760 N.am  455  ASN455     -0.1958
     52  CA        22.9600   59.3260   36.3620 C.3   455  ASN455      0.1819
     53  C         22.9210   60.0240   37.6910 C.2   455  ASN455      0.2621
     54  O         23.2050   61.1860   37.7570 O.2   455  ASN455     -0.2715
     55  CB        22.6800   60.3720   35.2290 C.3   455  ASN455      0.1195
     56  CG        23.0160   59.8510   33.8540 C.2   455  ASN455      0.2630
     57  OD1       24.0930   59.3300   33.6720 O.2   455  ASN455     -0.2716
     58  ND2       22.0850   59.9490   32.8680 N.am  455  ASN455     -0.0877
     59  N         22.5900   59.3460   38.7700 N.am  456  ALA456     -0.1977
     60  CA        22.6140   60.0000   40.0790 C.3   456  ALA456      0.1597
     61  C         22.8910   58.8350   41.0020 C.2   456  ALA456      0.2287
     62  O         22.7610   57.7350   40.5680 O.2   456  ALA456     -0.2864
     63  CB        21.3170   60.5980   40.3920 C.3   456  ALA456      0.0319
     64  N         16.0680   61.9470   42.3780 N.3   463  PRO463     -0.2102
     65  CA        15.6280   63.2880   41.9560 C.3   463  PRO463      0.1504
     66  C         14.5000   63.2460   40.9010 C.2   463  PRO463      0.2576
     67  O         14.3400   62.2330   40.1960 O.2   463  PRO463     -0.2718
     68  CB        16.8440   63.8620   41.2930 C.3   463  PRO463      0.0282
     69  CG        18.0580   63.0020   41.7440 C.3   463  PRO463      0.0208
     70  CD        17.4630   61.6180   42.0010 C.3   463  PRO463      0.0893
     71  N         13.7920   64.3730   40.7120 N.am  464  LYS464     -0.1966
     72  CA        12.8760   64.5440   39.5980 C.3   464  LYS464      0.1728
     73  C         13.6320   64.6680   38.2680 C.2   464  LYS464      0.2616
     74  O         14.7620   65.2470   38.2110 O.2   464  LYS464     -0.2715
     75  CB        11.9690   65.7880   39.8260 C.3   464  LYS464      0.0311
     76  CG        10.5860   65.4880   40.4160 C.3   464  LYS464      0.0038
     77  CD        10.6030   65.2100   41.8460 C.3   464  LYS464      0.0206
     78  CE         9.6310   64.1060   42.1420 C.3   464  LYS464      0.1093
     79  NZ         9.5890   63.8170   43.5600 N.3   464  LYS464     -0.1314
     80  N         13.0410   64.1110   37.2100 N.am  465  CYS465     -0.1968
     81  CA        13.6060   64.1570   35.8530 C.3   465  CYS465      0.1712
     82  C         13.9540   65.6460   35.5290 C.2   465  CYS465      0.2296
     83  O         15.0400   65.9270   35.0680 O.2   465  CYS465     -0.2864
     84  CB        12.5770   63.6790   34.9020 C.3   465  CYS465      0.0983
     85  SG        12.1390   61.8210   35.2070 S.3   465  CYS465     -0.0798
     86  N         14.7510   68.0740   37.4830 N.3   467  SER467     -0.1202
     87  CA        15.9460   68.5930   38.1160 C.3   467  SER467      0.2020
     88  C         17.1550   68.5780   37.1740 C.2   467  SER467      0.2619
     89  O         18.0300   69.4300   37.2960 O.2   467  SER467     -0.2717
     90  CB        16.2370   67.8500   39.4180 C.3   467  SER467      0.2103
     91  OG        16.7530   66.5860   39.0950 O.3   467  SER467     -0.2182
     92  N         17.2290   67.6470   36.2260 N.am  468  CYS468     -0.1955
     93  CA        18.3380   67.6510   35.2500 C.3   468  CYS468      0.1843
     94  C         17.9340   68.0340   33.8370 C.2   468  CYS468      0.2625
     95  O         18.7120   68.6580   33.0810 O.2   468  CYS468     -0.2714
     96  CB        19.0170   66.2680   35.2050 C.3   468  CYS468      0.0997
     97  SG        19.8000   66.0050   36.7510 S.3   468  CYS468     -0.0797
     98  N         16.7010   67.7140   33.4800 N.am  469  HIS469     -0.1973
     99  CA        16.2640   67.9100   32.0920 C.3   469  HIS469      0.1656
    100  C         15.5640   69.2170   31.8380 C.2   469  HIS469      0.2291
    101  O         15.3380   69.5670   30.7000 O.2   469  HIS469     -0.2864
    102  CB        15.4620   66.6750   31.5970 C.3   469  HIS469      0.0771
    103  CG        16.3350   65.4460   31.4360 C.ar  469  HIS469      0.0820
    104  ND1       17.1840   65.2700   30.3480 N.ar  469  HIS469     -0.2267
    105  CD2       16.5970   64.4210   32.2910 C.ar  469  HIS469      0.1154
    106  CE1       17.8640   64.1300   30.5160 C.ar  469  HIS469      0.1986
    107  NE2       17.5710   63.6430   31.7210 N.ar  469  HIS469     -0.2212
    108  N         24.3040   68.0290   28.4620 N.3   477  THR477     -0.1218
    109  CA        25.1910   67.4330   27.4750 C.3   477  THR477      0.1862
    110  C         24.4160   67.1030   26.2300 C.2   477  THR477      0.2287
    111  O         23.1990   67.2630   26.2170 O.2   477  THR477     -0.2866
    112  CB        25.9340   66.2430   27.9860 C.3   477  THR477      0.1770
    113  OG1       25.0070   65.1580   28.1510 O.3   477  THR477     -0.2211
    114  CG2       26.6690   66.6430   29.3050 C.3   477  THR477      0.0375
    115  N         23.4100   64.5210   24.4900 N.3   479  ASN479     -0.1225
    116  CA        22.3930   63.4740   24.5200 C.3   479  ASN479      0.1785
    117  C         21.4750   63.5560   25.7460 C.2   479  ASN479      0.2597
    118  O         20.8550   62.5670   26.0640 O.2   479  ASN479     -0.2718
    119  CB        23.0660   62.0690   24.4660 C.3   479  ASN479      0.1169
    120  CG        23.8460   61.8480   23.1360 C.2   479  ASN479      0.2627
    121  OD1       23.2720   61.8980   22.0130 O.2   479  ASN479     -0.2716
    122  ND2       25.1620   61.6310   23.2590 N.am  479  ASN479     -0.0877
    123  N         21.4170   64.7240   26.4040 N.am  480  GLN480     -0.1966
    124  CA        20.5760   65.0250   27.5500 C.3   480  GLN480      0.1718
    125  C         19.4760   65.9650   27.0890 C.2   480  GLN480      0.2458
    126  O         19.6410   67.2090   27.0500 O.2   480  GLN480     -0.2730
    127  CB        21.3790   65.7410   28.6450 C.3   480  GLN480      0.0407
    128  CG        20.6940   65.8380   29.9810 C.3   480  GLN480      0.0908
    129  CD        21.4850   66.7040   30.9820 C.2   480  GLN480      0.2608
    130  OE1       20.9790   67.1190   32.0090 O.2   480  GLN480     -0.2717
    131  NE2       22.7240   66.8980   30.6990 N.am  480  GLN480     -0.0878
    132  N         18.3280   65.3850   26.7310 N.am  481  PRO481     -0.2727
    133  CA        17.2290   66.1920   26.2320 C.3   481  PRO481      0.1402
    134  C         16.6000   67.1680   27.2250 C.2   481  PRO481      0.2269
    135  O         16.9160   67.1330   28.3740 O.2   481  PRO481     -0.2865
    136  CB        16.2070   65.1380   25.7690 C.3   481  PRO481      0.0296
    137  CG        16.6580   63.8540   26.3120 C.3   481  PRO481      0.0237
    138  CD        18.0840   63.9310   26.6740 C.3   481  PRO481      0.0939
    139  N         12.9950   64.0540   27.2700 N.3   486  ALA486     -0.1231
    140  CA        13.3470   63.0950   28.2840 C.3   486  ALA486      0.1694
    141  C         12.1880   62.1140   28.4870 C.2   486  ALA486      0.2592
    142  O         12.3850   60.9020   28.4690 O.2   486  ALA486     -0.2718
    143  CB        13.6470   63.8190   29.5920 C.3   486  ALA486      0.0304
    144  N         10.9970   62.6350   28.7580 N.am  487  PHE487     -0.1976
    145  CA         9.8800   61.7240   28.9850 C.3   487  PHE487      0.1639
    146  C          9.5520   60.9410   27.7760 C.2   487  PHE487      0.2290
    147  O          9.5300   59.6850   27.8030 O.2   487  PHE487     -0.2864
    148  CB         8.6330   62.4460   29.4700 C.3   487  PHE487      0.0560
    149  CG         8.6930   62.8670   30.9230 C.ar  487  PHE487     -0.0200
    150  CD1        8.8150   61.9390   31.9350 C.ar  487  PHE487     -0.0042
    151  CD2        8.5150   64.1850   31.2810 C.ar  487  PHE487     -0.0042
    152  CE1        8.8230   62.3000   33.2550 C.ar  487  PHE487     -0.0003
    153  CE2        8.5450   64.5480   32.6190 C.ar  487  PHE487     -0.0003
    154  CZ         8.6860   63.6170   33.5940 C.ar  487  PHE487     -0.0000
    155  N         11.3140   60.1840   25.1160 N.3   489  ASN489     -0.1225
    156  CA        12.3290   59.2070   24.6980 C.3   489  ASN489      0.1785
    157  C         12.4960   58.0260   25.6260 C.2   489  ASN489      0.2597
    158  O         12.7220   56.8890   25.1670 O.2   489  ASN489     -0.2718
    159  CB        13.6480   59.9010   24.3470 C.3   489  ASN489      0.1169
    160  CG        13.5010   60.8250   23.1260 C.2   489  ASN489      0.2627
    161  OD1       12.4430   60.8760   22.4750 O.2   489  ASN489     -0.2716
    162  ND2       14.5380   61.5460   22.8260 N.am  489  ASN489     -0.0877
    163  N         12.4220   58.2540   26.9220 N.am  490  GLN490     -0.1965
    164  CA        12.5590   57.1710   27.8920 C.3   490  GLN490      0.1733
    165  C         11.2570   56.3390   27.9480 C.2   490  GLN490      0.2616
    166  O         11.3050   55.1200   27.8600 O.2   490  GLN490     -0.2715
    167  CB        12.9480   57.7380   29.2480 C.3   490  GLN490      0.0408
    168  CG        13.4330   56.6110   30.2480 C.3   490  GLN490      0.0908
    169  CD        13.8200   57.0740   31.5930 C.2   490  GLN490      0.2608
    170  OE1       12.9790   57.1180   32.4810 O.2   490  GLN490     -0.2717
    171  NE2       15.1490   57.3230   31.8260 N.am  490  GLN490     -0.0878
    172  N         10.1020   56.9780   28.0860 N.am  491  CYS491     -0.1968
    173  CA         8.8200   56.2270   28.1690 C.3   491  CYS491      0.1712
    174  C          8.6000   55.4020   26.9530 C.2   491  CYS491      0.2296
    175  O          8.5660   54.1490   27.0040 O.2   491  CYS491     -0.2864
    176  CB         7.6420   57.2330   28.2850 C.3   491  CYS491      0.0983
    177  SG         7.8780   58.1750   29.8110 S.3   491  CYS491     -0.0798
@<TRIPOS>BOND
     1   121   120    2
     2   161   160    2
     3   162   160   am
     4   160   159    1
     5   120   122   am
     6   120   119    1
     7   159   156    1
     8   119   116    1
     9   115   116    1
    10   116   117    1
    11   156   155    1
    12   156   157    1
    13   158   157    2
    14   157   163   am
    15   117   118    2
    16   117   123   am
    17   136   133    1
    18   136   137    1
    19    11    10    2
    20     2     1    1
    21     2     3    1
    22     2     5    1
    23     1     7    1
    24   111   110    2
    25   110   109    1
    26   133   132    1
    27   133   134    1
    28   137   138    1
    29    18    17    1
    30    18    19    2
    31   123   124    1
    32   138   132    1
    33    17    20    1
    34    17    16    1
    35   132   125   am
    36     3     4    2
    37     3     8   am
    38     5     6    1
    39     7     6    1
    40   163   164    1
    41   174   175    2
    42   174   173    1
    43   126   125    2
    44   125   124    1
    45    10    16   am
    46    10     9    1
    47   134   135    2
    48    20    21    1
    49   139   140    1
    50    24    22   am
    51     8     9    1
    52   109   112    1
    53   109   108    1
    54   124   127    1
    55   146   147    2
    56   146   145    1
    57   166   165    2
    58   164   165    1
    59   164   167    1
    60   165   172   am
    61   112   113    1
    62   112   114    1
    63   172   173    1
    64     9    12    1
    65   173   176    1
    66   140   141    1
    67   140   143    1
    68   176   177    1
    69    22    21    1
    70    22    23    2
    71   142   141    2
    72   141   144   am
    73   127   128    1
    74   144   145    1
    75   145   148    1
    76    12    13    1
    77   167   168    1
    78   148   149    1
    79   128   129    1
    80    13    14    1
    81   168   169    1
    82   104   106   ar
    83   104   103   ar
    84   106   107   ar
    85   131   129   am
    86   101   100    2
    87   149   151   ar
    88   149   150   ar
    89   129   130    2
    90    14    15    1
    91   151   153   ar
    92   103   102    1
    93   103   105   ar
    94   169   171   am
    95   169   170    2
    96   102    99    1
    97    49    47   ar
    98    49    50   ar
    99   107   105   ar
   100   100    99    1
   101   150   152   ar
   102    99    98    1
   103    47    46   ar
   104    50    48   ar
   105   153   154   ar
   106    58    56   am
   107    95    94    2
   108   152   154   ar
   109    98    94   am
   110    46    48   ar
   111    46    45    1
   112    57    56    2
   113    94    93    1
   114    56    55    1
   115    30    29    1
   116    45    42    1
   117    26    25    1
   118    26    29    1
   119    26    27    1
   120    28    27    2
   121    84    85    1
   122    84    81    1
   123    83    82    2
   124    96    93    1
   125    96    97    1
   126    55    52    1
   127    93    92    1
   128    27    31   am
   129    82    81    1
   130    81    80    1
   131    42    41    1
   132    42    43    1
   133    92    88   am
   134    51    52    1
   135    51    43   am
   136    41    33   am
   137    52    53    1
   138    43    44    2
   139    31    32    1
   140    88    89    2
   141    88    87    1
   142    80    73   am
   143    86    87    1
   144    33    32    1
   145    33    34    2
   146    32    35    1
   147    53    54    2
   148    53    59   am
   149    87    90    1
   150    74    73    2
   151    73    72    1
   152    59    60    1
   153    35    36    1
   154    37    36   ar
   155    37    39   ar
   156    91    90    1
   157    36    38   ar
   158    39    40   ar
   159    72    75    1
   160    72    71    1
   161    38    40   ar
   162    75    76    1
   163    60    63    1
   164    60    61    1
   165    67    66    2
   166    76    77    1
   167    62    61    2
   168    71    66   am
   169    66    65    1
   170    68    69    1
   171    68    65    1
   172    69    70    1
   173    77    78    1
   174    65    64    1
   175    70    64    1
   176    78    79    1
