@<TRIPOS>MOLECULE
tmp/1z1nA05.pdb
 176 169 0 0 0
SMALL
GASTEIGER

@<TRIPOS>ATOM
      1  N         14.6940   47.2760   27.4900 N.3   341  GLY341     -0.1210
      2  CA        14.0540   48.5650   27.8070 C.3   341  GLY341      0.1956
      3  C         14.9820   49.3990   28.6400 C.2   341  GLY341      0.2612
      4  O         15.1290   50.6060   28.3630 O.2   341  GLY341     -0.2717
      5  N         15.5970   48.7920   29.6920 N.am  342  CYS342     -0.1970
      6  CA        16.5810   49.5500   30.4110 C.3   342  CYS342      0.1712
      7  C         17.9530   49.5470   29.7700 C.2   342  CYS342      0.2296
      8  O         18.7120   50.5220   29.9100 O.2   342  CYS342     -0.2864
      9  CB        16.7420   49.0730   31.7970 C.3   342  CYS342      0.0983
     10  SG        15.2340   49.1390   32.7810 S.3   342  CYS342     -0.0798
     11  N          1.5120   62.7180   35.8600 N.3   406  LEU406     -0.1245
     12  CA         2.6070   63.6010   35.5430 C.3   406  LEU406      0.1561
     13  C          2.1290   64.8790   34.8460 C.2   406  LEU406      0.2260
     14  O          1.6390   64.8150   33.7700 O.2   406  LEU406     -0.2867
     15  CB         3.6210   62.8540   34.6590 C.3   406  LEU406      0.0270
     16  CG         4.1920   61.5540   35.2720 C.3   406  LEU406      0.0019
     17  CD1        5.0090   60.8050   34.2130 C.3   406  LEU406      0.0001
     18  CD2        5.0440   61.9450   36.4720 C.3   406  LEU406      0.0001
     19  N         -0.2360   62.6920   32.0190 N.3   417  ALA417     -0.1231
     20  CA        -0.0180   61.2720   31.7570 C.3   417  ALA417      0.1694
     21  C         -0.2510   60.5300   33.0290 C.2   417  ALA417      0.2592
     22  O          0.1440   60.9830   34.1020 O.2   417  ALA417     -0.2718
     23  CB         1.4000   61.0770   31.2530 C.3   417  ALA417      0.0304
     24  N         -1.0040   59.4360   32.9300 N.am  418  GLU418     -0.1966
     25  CA        -1.1370   58.5040   34.0340 C.3   418  GLU418      0.1733
     26  C         -0.0040   57.5350   33.8280 C.2   418  GLU418      0.2616
     27  O          0.3330   57.1810   32.6480 O.2   418  GLU418     -0.2715
     28  CB        -2.4470   57.7030   33.9720 C.3   418  GLU418      0.0429
     29  CG        -3.7120   58.5330   34.2530 C.3   418  GLU418      0.1163
     30  CD        -3.9110   58.8660   35.7120 C.2   418  GLU418      0.3649
     31  OE1       -4.4720   58.0070   36.4660 O.co2 418  GLU418     -0.2457
     32  OE2       -3.5290   60.0030   36.1060 O.co2 418  GLU418     -0.2457
     33  N          0.5970   57.1120   34.9340 N.am  419  PHE419     -0.1960
     34  CA         1.8830   56.3470   34.8740 C.3   419  PHE419      0.1756
     35  C          1.7860   55.3430   36.0320 C.2   419  PHE419      0.2461
     36  O          1.8600   55.7140   37.2110 O.2   419  PHE419     -0.2730
     37  CB         3.0800   57.3090   35.0380 C.3   419  PHE419      0.0574
     38  CG         4.4290   56.6240   35.2070 C.ar  419  PHE419     -0.0200
     39  CD1        4.8010   55.5550   34.4080 C.ar  419  PHE419     -0.0042
     40  CD2        5.3130   57.0620   36.1720 C.ar  419  PHE419     -0.0042
     41  CE1        6.0710   54.9730   34.5450 C.ar  419  PHE419     -0.0003
     42  CE2        6.5720   56.4670   36.3170 C.ar  419  PHE419     -0.0003
     43  CZ         6.9270   55.4150   35.5190 C.ar  419  PHE419     -0.0000
     44  N          1.5450   54.0490   35.6960 N.am  420  PRO420     -0.2727
     45  CA         1.5260   52.9350   36.6750 C.3   420  PRO420      0.1402
     46  C          2.8930   52.4410   37.1900 C.2   420  PRO420      0.2269
     47  O          3.2810   51.2800   37.0270 O.2   420  PRO420     -0.2865
     48  CB         0.6890   51.8550   35.9800 C.3   420  PRO420      0.0296
     49  CG         1.0000   52.0770   34.5200 C.3   420  PRO420      0.0237
     50  CD         1.2970   53.5940   34.3190 C.3   420  PRO420      0.0939
     51  N          3.5460   49.0500   39.3120 N.3   423  LYS423     -0.1231
     52  CA         3.1910   47.8850   38.5550 C.3   423  LYS423      0.1693
     53  C          4.2300   47.6830   37.4680 C.2   423  LYS423      0.2591
     54  O          4.5870   46.5510   37.1330 O.2   423  LYS423     -0.2718
     55  CB         1.8150   48.1020   37.9880 C.3   423  LYS423      0.0285
     56  CG         1.5490   47.4500   36.7100 C.3   423  LYS423      0.0035
     57  CD         0.0310   47.4650   36.3780 C.3   423  LYS423      0.0206
     58  CE        -0.0530   47.6260   34.9140 C.3   423  LYS423      0.1093
     59  NZ        -1.4410   47.8430   34.4700 N.3   423  LYS423     -0.1314
     60  N          4.7450   48.7750   36.9110 N.am  424  ILE424     -0.1980
     61  CA         5.8470   48.6650   35.9230 C.3   424  ILE424      0.1595
     62  C          7.1440   48.1550   36.6170 C.2   424  ILE424      0.2287
     63  O          7.7400   47.1920   36.1520 O.2   424  ILE424     -0.2864
     64  CB         6.1540   50.0380   35.2050 C.3   424  ILE424      0.0276
     65  CG1        4.9540   50.4170   34.3720 C.3   424  ILE424      0.0022
     66  CG2        7.3550   49.9250   34.3170 C.3   424  ILE424      0.0022
     67  CD1        4.8530   51.8760   33.9010 C.3   424  ILE424      0.0001
     68  N          6.7070   44.4000   37.1830 N.3   427  LYS427     -0.1231
     69  CA         6.8030   43.6240   35.9580 C.3   427  LYS427      0.1693
     70  C          8.2680   43.5380   35.5180 C.2   427  LYS427      0.2591
     71  O          8.8050   42.4740   35.1050 O.2   427  LYS427     -0.2718
     72  CB         5.9400   44.2780   34.8540 C.3   427  LYS427      0.0285
     73  CG         5.9620   43.6080   33.4370 C.3   427  LYS427      0.0035
     74  CD         5.3990   42.2190   33.5630 C.3   427  LYS427      0.0206
     75  CE         5.5870   41.4140   32.3290 C.3   427  LYS427      0.1093
     76  NZ         5.0440   40.0890   32.7190 N.3   427  LYS427     -0.1314
     77  N          8.9710   44.6620   35.5890 N.am  428  LEU428     -0.1980
     78  CA        10.3550   44.6210   35.1340 C.3   428  LEU428      0.1596
     79  C         11.1890   43.6830   36.0090 C.2   428  LEU428      0.2287
     80  O         12.0330   42.9510   35.5140 O.2   428  LEU428     -0.2864
     81  CB        11.0030   46.0500   35.2530 C.3   428  LEU428      0.0297
     82  CG        10.4330   47.0200   34.2960 C.3   428  LEU428      0.0022
     83  CD1       10.9600   48.5060   34.5790 C.3   428  LEU428      0.0001
     84  CD2       10.8130   46.6300   32.9130 C.3   428  LEU428      0.0001
     85  N         17.5410   52.2030   36.1580 N.3   451  GLY451     -0.1210
     86  CA        17.2980   52.1030   34.7220 C.3   451  GLY451      0.1956
     87  C         16.4350   53.2340   34.2010 C.2   451  GLY451      0.2612
     88  O         16.4200   53.5200   32.9830 O.2   451  GLY451     -0.2717
     89  N         15.6840   53.8400   35.1030 N.am  452  CYS452     -0.1970
     90  CA        14.9380   55.0360   34.7610 C.3   452  CYS452      0.1712
     91  C         15.5720   56.2310   35.4600 C.2   452  CYS452      0.2296
     92  O         15.9810   57.1470   34.8100 O.2   452  CYS452     -0.2864
     93  CB        13.4830   54.8490   35.1800 C.3   452  CYS452      0.0983
     94  SG        12.7370   53.4780   34.1340 S.3   452  CYS452     -0.0798
     95  N         10.9970   62.6350   28.7580 N.3   487  PHE487     -0.1241
     96  CA         9.8800   61.7240   28.9850 C.3   487  PHE487      0.1605
     97  C          9.5520   60.9410   27.7760 C.2   487  PHE487      0.2264
     98  O          9.5300   59.6850   27.8030 O.2   487  PHE487     -0.2867
     99  CB         8.6330   62.4460   29.4700 C.3   487  PHE487      0.0534
    100  CG         8.6930   62.8670   30.9230 C.ar  487  PHE487     -0.0203
    101  CD1        8.8150   61.9390   31.9350 C.ar  487  PHE487     -0.0042
    102  CD2        8.5150   64.1850   31.2810 C.ar  487  PHE487     -0.0042
    103  CE1        8.8230   62.3000   33.2550 C.ar  487  PHE487     -0.0003
    104  CE2        8.5450   64.5480   32.6190 C.ar  487  PHE487     -0.0003
    105  CZ         8.6860   63.6170   33.5940 C.ar  487  PHE487     -0.0000
    106  N         12.4220   58.2540   26.9220 N.3   490  GLN490     -0.1231
    107  CA        12.5590   57.1710   27.8920 C.3   490  GLN490      0.1698
    108  C         11.2570   56.3390   27.9480 C.2   490  GLN490      0.2592
    109  O         11.3050   55.1200   27.8600 O.2   490  GLN490     -0.2718
    110  CB        12.9480   57.7380   29.2480 C.3   490  GLN490      0.0381
    111  CG        13.4330   56.6110   30.2480 C.3   490  GLN490      0.0905
    112  CD        13.8200   57.0740   31.5930 C.2   490  GLN490      0.2608
    113  OE1       12.9790   57.1180   32.4810 O.2   490  GLN490     -0.2717
    114  NE2       15.1490   57.3230   31.8260 N.am  490  GLN490     -0.0878
    115  N         10.1020   56.9780   28.0860 N.am  491  CYS491     -0.1970
    116  CA         8.8200   56.2270   28.1690 C.3   491  CYS491      0.1712
    117  C          8.6000   55.4020   26.9530 C.2   491  CYS491      0.2296
    118  O          8.5660   54.1490   27.0040 O.2   491  CYS491     -0.2864
    119  CB         7.6420   57.2330   28.2850 C.3   491  CYS491      0.0983
    120  SG         7.8780   58.1750   29.8110 S.3   491  CYS491     -0.0798
    121  N         11.2610   52.6930   25.8250 N.3   494  CYS494     -0.1221
    122  CA        11.1620   51.3830   26.4610 C.3   494  CYS494      0.1808
    123  C          9.9930   50.5690   25.9080 C.2   494  CYS494      0.2601
    124  O         10.0990   49.3450   25.6950 O.2   494  CYS494     -0.2717
    125  CB        11.0040   51.5840   27.9780 C.3   494  CYS494      0.0970
    126  SG        10.7990   49.8750   28.7780 S.3   494  CYS494     -0.0800
    127  N          8.8670   51.2460   25.6420 N.am  495  HIS495     -0.1975
    128  CA         7.6830   50.5860   25.0720 C.3   495  HIS495      0.1656
    129  C          8.0510   50.0430   23.7260 C.2   495  HIS495      0.2291
    130  O          7.7220   48.8940   23.3920 O.2   495  HIS495     -0.2864
    131  CB         6.4610   51.5720   24.9290 C.3   495  HIS495      0.0771
    132  CG         5.8100   51.8780   26.2530 C.ar  495  HIS495      0.0820
    133  ND1        4.5450   52.3880   26.3730 N.ar  495  HIS495     -0.2267
    134  CD2        6.2450   51.6680   27.5200 C.ar  495  HIS495      0.1154
    135  CE1        4.2490   52.5390   27.6520 C.ar  495  HIS495      0.1986
    136  NE2        5.2880   52.1570   28.3680 N.ar  495  HIS495     -0.2212
    137  N         10.3690   46.8710   24.3670 N.3   498  MET498     -0.1245
    138  CA         9.7560   45.7600   25.0500 C.3   498  MET498      0.1570
    139  C          8.4840   45.3390   24.3050 C.2   498  MET498      0.2261
    140  O          7.9370   44.3110   24.5960 O.2   498  MET498     -0.2867
    141  CB         9.4190   46.0910   26.4610 C.3   498  MET498      0.0387
    142  CG        10.5730   46.5120   27.3010 C.3   498  MET498      0.0595
    143  SD        10.2080   46.7370   29.0200 S.3   498  MET498     -0.1393
    144  CE         9.9020   44.9460   29.4490 C.3   498  MET498      0.0692
    145  N          5.5010   46.8730   24.3220 N.3   500  VAL500     -0.1231
    146  CA         4.3450   46.9960   25.1820 C.3   500  VAL500      0.1692
    147  C          3.5080   48.1780   24.7350 C.2   500  VAL500      0.2592
    148  O          3.9940   49.1360   24.1080 O.2   500  VAL500     -0.2718
    149  CB         4.6750   47.0860   26.7600 C.3   500  VAL500      0.0266
    150  CG1        5.4290   45.8310   27.2960 C.3   500  VAL500      0.0020
    151  CG2        5.4800   48.3050   27.0870 C.3   500  VAL500      0.0020
    152  N          2.2460   48.1100   25.1050 N.am  501  ASN501     -0.1961
    153  CA         1.2970   49.1630   24.8950 C.3   501  ASN501      0.1804
    154  C          1.2200   50.0670   26.1160 C.2   501  ASN501      0.2463
    155  O          1.3770   49.5840   27.2550 O.2   501  ASN501     -0.2730
    156  CB        -0.0790   48.5330   24.7020 C.3   501  ASN501      0.1195
    157  CG        -0.1980   47.8580   23.4220 C.2   501  ASN501      0.2630
    158  OD1        0.3380   48.3100   22.3960 O.2   501  ASN501     -0.2716
    159  ND2       -0.9070   46.7550   23.4310 N.am  501  ASN501     -0.0877
    160  N          0.9230   51.3730   25.9060 N.am  502  PRO502     -0.2727
    161  CA         0.6220   52.1000   24.6540 C.3   502  PRO502      0.1402
    162  C          1.8230   52.1880   23.6870 C.2   502  PRO502      0.2269
    163  O          2.9640   52.4400   24.1490 O.2   502  PRO502     -0.2865
    164  CB         0.2740   53.5370   25.1290 C.3   502  PRO502      0.0296
    165  CG         0.2360   53.5260   26.5910 C.3   502  PRO502      0.0237
    166  CD         0.8980   52.2500   27.0960 C.3   502  PRO502      0.0939
    167  N         -3.1980   56.7210   24.7780 N.3   509  GLY509     -0.1210
    168  CA        -2.9210   55.6790   25.7820 C.3   509  GLY509      0.1956
    169  C         -2.1620   56.1890   26.9700 C.2   509  GLY509      0.2612
    170  O         -2.3790   55.7240   28.0720 O.2   509  GLY509     -0.2717
    171  N         -1.2480   57.1420   26.7720 N.am  510  CYS510     -0.1970
    172  CA        -0.5870   57.7880   27.9110 C.3   510  CYS510      0.1712
    173  C         -1.2500   59.0530   28.4210 C.2   510  CYS510      0.2296
    174  O         -1.2960   59.2860   29.6220 O.2   510  CYS510     -0.2864
    175  CB         0.8690   58.1390   27.5980 C.3   510  CYS510      0.0983
    176  SG         1.8320   56.6730   27.4060 S.3   510  CYS510     -0.0798
@<TRIPOS>BOND
     1   158   157    2
     2   130   129    2
     3   157   159   am
     4   157   156    1
     5   162   163    2
     6   162   161    1
     7   129   128    1
     8   148   147    2
     9   139   140    2
    10   139   138    1
    11   145   146    1
    12   137   138    1
    13   161   164    1
    14   161   160    1
    15   156   153    1
    16   147   152   am
    17   147   146    1
    18   167   168    1
    19   153   152    1
    20   153   154    1
    21   131   128    1
    22   131   132    1
    23   138   141    1
    24   128   127    1
    25   164   165    1
    26   146   149    1
    27   127   123   am
    28   124   123    2
    29   168   169    1
    30   121   122    1
    31   160   154   am
    32   160   166    1
    33   123   122    1
    34   154   155    2
    35   132   133   ar
    36   132   134   ar
    37   133   135   ar
    38   141   142    1
    39   122   125    1
    40   165   166    1
    41   149   151    1
    42   149   150    1
    43   171   169   am
    44   171   172    1
    45   106   107    1
    46   117   118    2
    47   117   116    1
    48   169   170    2
    49   142   143    1
    50   176   175    1
    51     1     2    1
    52   134   136   ar
    53   175   172    1
    54   135   136   ar
    55    97    98    2
    56    97    96    1
    57     2     3    1
    58   109   108    2
    59   107   108    1
    60   107   110    1
    61   172   173    1
    62   108   115   am
    63   125   126    1
    64   115   116    1
    65   116   119    1
    66   119   120    1
    67     4     3    2
    68   173   174    2
    69     3     5   am
    70    95    96    1
    71    96    99    1
    72   143   144    1
    73   110   111    1
    74    99   100    1
    75     5     6    1
    76     7     8    2
    77     7     6    1
    78   111   112    1
    79     6     9    1
    80   100   102   ar
    81   100   101   ar
    82    23    20    1
    83   102   104   ar
    84   112   114   am
    85   112   113    2
    86    20    19    1
    87    20    21    1
    88     9    10    1
    89   101   103   ar
    90    75    76    1
    91    75    74    1
    92   104   105   ar
    93    27    26    2
    94    84    82    1
    95    24    21   am
    96    24    25    1
    97    88    87    2
    98    21    22    2
    99   103   105   ar
   100    73    74    1
   101    73    72    1
   102    14    13    2
   103    26    25    1
   104    26    33   am
   105    67    65    1
   106    28    25    1
   107    28    29    1
   108    94    93    1
   109    87    86    1
   110    87    89   am
   111    17    16    1
   112    29    30    1
   113    82    83    1
   114    82    81    1
   115    66    64    1
   116    50    49    1
   117    50    44    1
   118    65    64    1
   119    39    41   ar
   120    39    38   ar
   121    59    58    1
   122    49    48    1
   123    41    43   ar
   124    15    16    1
   125    15    12    1
   126    86    85    1
   127    90    89    1
   128    90    93    1
   129    90    91    1
   130    92    91    2
   131    13    12    1
   132    72    69    1
   133    34    33    1
   134    34    37    1
   135    34    35    1
   136    58    57    1
   137    37    38    1
   138    71    70    2
   139    78    81    1
   140    78    77    1
   141    78    79    1
   142    64    61    1
   143    38    40   ar
   144    16    18    1
   145    80    79    2
   146    70    77   am
   147    70    69    1
   148    43    42   ar
   149    12    11    1
   150    44    35   am
   151    44    45    1
   152    30    32   ar
   153    30    31   ar
   154    61    62    1
   155    61    60    1
   156    69    68    1
   157    48    45    1
   158    35    36    2
   159    63    62    2
   160    40    42   ar
   161    57    56    1
   162    45    46    1
   163    56    55    1
   164    60    53   am
   165    47    46    2
   166    54    53    2
   167    53    52    1
   168    55    52    1
   169    52    51    1
