@<TRIPOS>MOLECULE
tmp/1z1nA08.pdb
 245 234 0 0 0
SMALL
GASTEIGER

@<TRIPOS>ATOM
      1  N         19.2130   28.9590   -3.2750 N.3     6  ILE6       -0.1245
      2  CA        20.6280   28.6640   -3.4580 C.3     6  ILE6        0.1561
      3  C         21.1880   29.5790   -4.5450 C.2     6  ILE6        0.2260
      4  O         20.7130   29.5650   -5.6950 O.2     6  ILE6       -0.2867
      5  CB        20.8380   27.2000   -3.8910 C.3     6  ILE6        0.0252
      6  CG1       20.1940   26.2560   -2.8820 C.3     6  ILE6        0.0019
      7  CG2       22.3160   26.8830   -4.0890 C.3     6  ILE6        0.0019
      8  CD1       19.9560   24.8580   -3.4070 C.3     6  ILE6        0.0001
      9  N         23.7010   29.7370   -7.0090 N.3     8  ILE8       -0.1245
     10  CA        24.6420   28.9110   -7.7310 C.3     8  ILE8        0.1561
     11  C         25.6810   29.8330   -8.3320 C.2     8  ILE8        0.2260
     12  O         25.3820   30.5160   -9.3010 O.2     8  ILE8       -0.2867
     13  CB        23.9570   28.1320   -8.8670 C.3     8  ILE8        0.0252
     14  CG1       22.5830   27.6480   -8.4000 C.3     8  ILE8        0.0019
     15  CG2       24.8600   27.0280   -9.3600 C.3     8  ILE8        0.0019
     16  CD1       22.0970   26.3510   -8.9820 C.3     8  ILE8        0.0001
     17  N         28.9580   28.4470   -8.6130 N.3    10  THR10      -0.1218
     18  CA        30.0410   27.4790   -8.6060 C.3    10  THR10       0.1862
     19  C         31.2010   27.9680   -9.4580 C.2    10  THR10       0.2287
     20  O         32.3510   27.9320   -9.0060 O.2    10  THR10      -0.2866
     21  CB        29.5720   26.1010   -9.0890 C.3    10  THR10       0.1770
     22  OG1       28.2410   25.8620   -8.6120 O.3    10  THR10      -0.2211
     23  CG2       30.4960   25.0020   -8.5810 C.3    10  THR10       0.0375
     24  N         18.5120   29.4580   -7.7360 N.3    24  PHE24      -0.1241
     25  CA        17.6970   28.2510   -7.8000 C.3    24  PHE24       0.1605
     26  C         16.8640   28.1170   -6.5090 C.2    24  PHE24       0.2264
     27  O         17.3580   28.3890   -5.4030 O.2    24  PHE24      -0.2867
     28  CB        18.6280   27.0590   -8.0440 C.3    24  PHE24       0.0534
     29  CG        17.9480   25.7090   -8.0540 C.ar   24  PHE24      -0.0203
     30  CD1       17.3900   25.1990   -9.2170 C.ar   24  PHE24      -0.0042
     31  CD2       17.9210   24.9270   -6.9040 C.ar   24  PHE24      -0.0042
     32  CE1       16.7870   23.9270   -9.2380 C.ar   24  PHE24      -0.0003
     33  CE2       17.3070   23.6370   -6.9030 C.ar   24  PHE24      -0.0003
     34  CZ        16.7510   23.1400   -8.0760 C.ar   24  PHE24      -0.0000
     35  N         14.8810   25.7110   -4.1620 N.3    26  HIS26      -0.1241
     36  CA        14.9540   24.2850   -3.9430 C.3    26  HIS26       0.1621
     37  C         13.5850   23.7100   -3.6760 C.2    26  HIS26       0.2264
     38  O         13.3200   22.5310   -3.9810 O.2    26  HIS26      -0.2867
     39  CB        15.9280   23.9830   -2.7870 C.3    26  HIS26       0.0745
     40  CG        16.6370   22.6880   -2.9440 C.ar   26  HIS26       0.0817
     41  ND1       16.0850   21.4850   -2.5640 N.ar   26  HIS26      -0.2268
     42  CD2       17.8450   22.3980   -3.4820 C.ar   26  HIS26       0.1154
     43  CE1       16.9330   20.5070   -2.8480 C.ar   26  HIS26       0.1986
     44  NE2       18.0030   21.0390   -3.4210 N.ar   26  HIS26      -0.2212
     45  N         11.1500   23.2330   -6.7380 N.3    29  HIS29      -0.1226
     46  CA        11.6010   21.9980   -7.3300 C.3    29  HIS29       0.1752
     47  C         11.2680   20.7410   -6.5420 C.2    29  HIS29       0.2596
     48  O         10.8280   19.7530   -7.1390 O.2    29  HIS29      -0.2718
     49  CB        13.1050   22.0820   -7.6100 C.3    29  HIS29       0.0759
     50  CG        13.4210   22.9350   -8.7900 C.ar   29  HIS29       0.0818
     51  ND1       13.4990   24.3100   -8.7110 N.ar   29  HIS29      -0.2268
     52  CD2       13.5930   22.6230  -10.0960 C.ar   29  HIS29       0.1154
     53  CE1       13.7530   24.8060   -9.9070 C.ar   29  HIS29       0.1986
     54  NE2       13.8000   23.8030  -10.7670 N.ar   29  HIS29      -0.2212
     55  N         11.4720   20.7510   -5.2210 N.am   30  THR30      -0.1953
     56  CA        11.2800   19.5110   -4.4460 C.3    30  THR30       0.1897
     57  C          9.8260   19.2050   -4.3700 C.2    30  THR30       0.2313
     58  O          9.4360   18.0420   -4.4430 O.2    30  THR30      -0.2863
     59  CB        11.8750   19.5480   -3.0380 C.3    30  THR30       0.1794
     60  OG1       11.7020   20.8480   -2.4740 O.3    30  THR30      -0.2208
     61  CG2       13.3760   19.1980   -3.0770 C.3    30  THR30       0.0378
     62  N          8.8460   17.8650   -7.9430 N.3    33  LEU33      -0.1231
     63  CA         9.4060   16.5470   -8.2310 C.3    33  LEU33       0.1693
     64  C          8.8140   15.4270   -7.3600 C.2    33  LEU33       0.2591
     65  O          8.7010   14.2660   -7.8030 O.2    33  LEU33      -0.2718
     66  CB        10.9430   16.5520   -8.1540 C.3    33  LEU33       0.0284
     67  CG        11.8400   17.3840   -9.1000 C.3    33  LEU33       0.0019
     68  CD1       12.8810   16.4500   -9.6480 C.3    33  LEU33       0.0001
     69  CD2       11.1740   18.1060  -10.2500 C.3    33  LEU33       0.0001
     70  N          8.4260   15.7810   -6.1320 N.am   34  GLU34      -0.1979
     71  CA         7.7960   14.8150   -5.2110 C.3    34  GLU34       0.1602
     72  C          6.3740   14.5270   -5.6420 C.2    34  GLU34       0.2287
     73  O          5.8620   13.4360   -5.3730 O.2    34  GLU34      -0.2864
     74  CB         7.8430   15.2680   -3.7410 C.3    34  GLU34       0.0415
     75  CG         9.2390   15.0750   -3.0500 C.3    34  GLU34       0.1163
     76  CD         9.6360   13.6050   -2.8070 C.2    34  GLU34       0.3649
     77  OE1        8.7770   12.8020   -2.3560 O.co2  34  GLU34      -0.2457
     78  OE2       10.8210   13.2740   -3.0480 O.co2  34  GLU34      -0.2457
     79  N         12.1040   11.0140   -6.6110 N.3    39  ASP39      -0.1225
     80  CA        12.9060   11.3520   -5.4180 C.3    39  ASP39       0.1805
     81  C         14.1230   12.2410   -5.7130 C.2    39  ASP39       0.2598
     82  O         14.1890   12.8660   -6.7670 O.2    39  ASP39      -0.2718
     83  CB        13.3410   10.0800   -4.6970 C.3    39  ASP39       0.1424
     84  CG        14.3250    9.2740   -5.4990 C.2    39  ASP39       0.3668
     85  OD1       14.7500    9.7480   -6.5690 O.co2  39  ASP39      -0.2456
     86  OD2       14.6750    8.1600   -5.0580 O.co2  39  ASP39      -0.2456
     87  N         15.0740   12.2910   -4.7720 N.am   40  CYS40      -0.1970
     88  CA        16.2190   13.2250   -4.8310 C.3    40  CYS40       0.1712
     89  C         17.1830   12.8440   -5.9310 C.2    40  CYS40       0.2296
     90  O         17.8490   13.7240   -6.4830 O.2    40  CYS40      -0.2864
     91  CB        16.9890   13.2530   -3.5030 C.3    40  CYS40       0.0983
     92  SG        15.9230   13.2830   -2.0640 S.3    40  CYS40      -0.0798
     93  N         16.7940   12.1890   -8.8170 N.3    42  SER42      -0.1202
     94  CA        16.4550   12.9840  -10.0000 C.3    42  SER42       0.2020
     95  C         17.4850   14.0560  -10.2720 C.2    42  SER42       0.2619
     96  O         17.6790   14.4580  -11.4390 O.2    42  SER42      -0.2717
     97  CB        15.1260   13.7110   -9.8100 C.3    42  SER42       0.2103
     98  OG        14.0920   12.8180   -9.4370 O.3    42  SER42      -0.2182
     99  N         18.1230   14.5460   -9.2000 N.am   43  CYS43      -0.1955
    100  CA        19.1330   15.6350   -9.3050 C.3    43  CYS43       0.1843
    101  C         20.4640   15.4320   -8.5910 C.2    43  CYS43       0.2625
    102  O         21.3650   16.2780   -8.7040 O.2    43  CYS43      -0.2714
    103  CB        18.5300   16.9180   -8.8230 C.3    43  CYS43       0.0997
    104  SG        17.1350   17.2320   -9.7780 S.3    43  CYS43      -0.0797
    105  N         20.5620   14.3240   -7.8710 N.am   44  HIS44      -0.1973
    106  CA        21.6910   14.0400   -7.0440 C.3    44  HIS44       0.1656
    107  C         22.1460   12.6150   -7.2280 C.2    44  HIS44       0.2291
    108  O         21.3760   11.6640   -7.0230 O.2    44  HIS44      -0.2864
    109  CB        21.3390   14.3110   -5.5570 C.3    44  HIS44       0.0771
    110  CG        21.1210   15.7640   -5.2350 C.ar   44  HIS44       0.0820
    111  ND1       22.1440   16.6880   -5.2350 N.ar   44  HIS44      -0.2267
    112  CD2       20.0110   16.4390   -4.8660 C.ar   44  HIS44       0.1154
    113  CE1       21.6720   17.8770   -4.9000 C.ar   44  HIS44       0.1986
    114  NE2       20.3790   17.7540   -4.6890 N.ar   44  HIS44      -0.2212
    115  N         25.3980   16.1990   -2.8290 N.3    53  PHE53      -0.1227
    116  CA        24.5220   17.3930   -2.9030 C.3    53  PHE53       0.1736
    117  C         25.0480   18.4480   -3.8400 C.2    53  PHE53       0.2595
    118  O         24.5300   19.5570   -3.9310 O.2    53  PHE53      -0.2718
    119  CB        24.1640   17.9530   -1.5230 C.3    53  PHE53       0.0547
    120  CG        23.3490   16.9910   -0.7020 C.ar   53  PHE53      -0.0202
    121  CD1       23.8290   16.4980    0.5060 C.ar   53  PHE53      -0.0042
    122  CD2       22.1330   16.5310   -1.1770 C.ar   53  PHE53      -0.0042
    123  CE1       23.0880   15.5990    1.2370 C.ar   53  PHE53      -0.0003
    124  CE2       21.3750   15.6200   -0.4450 C.ar   53  PHE53      -0.0003
    125  CZ        21.8520   15.1570    0.7660 C.ar   53  PHE53      -0.0000
    126  N         26.0740   18.0420   -4.5720 N.am   54  LYS54      -0.1966
    127  CA        26.3970   18.6100   -5.8770 C.3    54  LYS54       0.1728
    128  C         25.1940   18.3710   -6.7880 C.2    54  LYS54       0.2616
    129  O         24.5150   17.3530   -6.6650 O.2    54  LYS54      -0.2715
    130  CB        27.6240   17.8850   -6.4490 C.3    54  LYS54       0.0311
    131  CG        28.9660   18.3470   -5.8530 C.3    54  LYS54       0.0038
    132  CD        30.1840   17.8840   -6.6660 C.3    54  LYS54       0.0206
    133  CE        31.4980   18.2710   -5.9530 C.3    54  LYS54       0.1093
    134  NZ        31.5980   19.7540   -5.6670 N.3    54  LYS54      -0.1314
    135  N         24.9220   19.3150   -7.6770 N.am   55  PHE55      -0.1974
    136  CA        23.8850   19.1030   -8.7040 C.3    55  PHE55       0.1639
    137  C         24.3080   18.2120   -9.8930 C.2    55  PHE55       0.2290
    138  O         25.1380   18.6200  -10.6830 O.2    55  PHE55      -0.2864
    139  CB        23.3630   20.4250   -9.2660 C.3    55  PHE55       0.0560
    140  CG        22.4060   20.2360  -10.3940 C.ar   55  PHE55      -0.0200
    141  CD1       21.2820   19.4250  -10.2310 C.ar   55  PHE55      -0.0042
    142  CD2       22.6470   20.8430  -11.6270 C.ar   55  PHE55      -0.0042
    143  CE1       20.3720   19.2430  -11.2780 C.ar   55  PHE55      -0.0003
    144  CE2       21.7650   20.6730  -12.6900 C.ar   55  PHE55      -0.0003
    145  CZ        20.6080   19.8840  -12.5130 C.ar   55  PHE55      -0.0000
    146  N         26.0380   15.4270  -10.5640 N.3    57  ARG57      -0.1245
    147  CA        27.4940   15.1890  -10.7600 C.3    57  ARG57       0.1563
    148  C         28.1330   14.7870   -9.4210 C.2    57  ARG57       0.2260
    149  O         27.5610   15.0130   -8.3430 O.2    57  ARG57      -0.2867
    150  CB        28.2060   16.4380  -11.3190 C.3    57  ARG57       0.0307
    151  CG        28.6120   17.4710  -10.2760 C.3    57  ARG57       0.0489
    152  CD        28.8200   18.8510  -10.8840 C.3    57  ARG57       0.2205
    153  NE        29.2210   19.8120   -9.8720 N.pl3  57  ARG57      -0.0865
    154  CZ        28.4150   20.7070   -9.2870 C.cat  57  ARG57       0.5346
    155  NH1       27.1350   20.7690   -9.6260 N.pl3  57  ARG57       0.1354
    156  NH2       28.8860   21.5320   -8.3360 N.pl3  57  ARG57       0.1354
    157  N         26.1090   22.7360  -16.4170 N.3    71  TYR71      -0.1241
    158  CA        25.0030   23.2770  -15.6640 C.3    71  TYR71       0.1605
    159  C         23.8270   23.3980  -16.5760 C.2    71  TYR71       0.2264
    160  O         22.8240   22.6740  -16.3700 O.2    71  TYR71      -0.2867
    161  CB        25.3320   24.5860  -14.9510 C.3    71  TYR71       0.0534
    162  CG        25.6940   24.3800  -13.4790 C.ar   71  TYR71      -0.0201
    163  CD1       27.0000   24.5950  -13.0370 C.ar   71  TYR71      -0.0009
    164  CD2       24.7240   23.9630  -12.5320 C.ar   71  TYR71      -0.0009
    165  CE1       27.3540   24.4100  -11.6860 C.ar   71  TYR71       0.0417
    166  CE2       25.0540   23.7730  -11.1600 C.ar   71  TYR71       0.0417
    167  CZ        26.3840   24.0070  -10.7430 C.ar   71  TYR71       0.1957
    168  OH        26.7980   23.8460   -9.4270 O.3    71  TYR71      -0.2866
    169  N         20.3830   21.1350  -16.2420 N.3    75  CYS75      -0.1235
    170  CA        19.2810   21.9620  -15.8720 C.3    75  CYS75       0.1677
    171  C         18.1740   21.8000  -16.8850 C.2    75  CYS75       0.2270
    172  O         17.0700   21.3030  -16.5610 O.2    75  CYS75      -0.2867
    173  CB        19.7010   23.4320  -15.8420 C.3    75  CYS75       0.0956
    174  SG        20.5370   23.9890  -14.3220 S.3    75  CYS75      -0.0801
    175  N         16.0330   18.3730  -17.9810 N.3    78  CYS78      -0.1235
    176  CA        14.7980   18.0010  -17.3130 C.3    78  CYS78       0.1677
    177  C         13.6170   18.9050  -17.6880 C.2    78  CYS78       0.2270
    178  O         12.5250   18.3970  -17.8970 O.2    78  CYS78      -0.2867
    179  CB        14.9560   17.9810  -15.8250 C.3    78  CYS78       0.0956
    180  SG        13.3750   17.5670  -14.9980 S.3    78  CYS78      -0.0801
    181  N         29.2540   24.2980    5.6380 N.3   184  ARG184     -0.1231
    182  CA        28.0600   24.1540    4.8390 C.3   184  ARG184      0.1694
    183  C         28.0610   22.8320    4.0910 C.2   184  ARG184      0.2592
    184  O         27.1160   22.0520    4.2070 O.2   184  ARG184     -0.2718
    185  CB        28.0410   25.3030    3.8660 C.3   184  ARG184      0.0321
    186  CG        26.7240   25.4610    3.1060 C.3   184  ARG184      0.0489
    187  CD        26.9150   26.4450    2.0070 C.3   184  ARG184      0.2205
    188  NE        25.8120   26.4030    1.0650 N.pl3 184  ARG184     -0.0865
    189  CZ        25.3910   27.4630    0.3800 C.cat 184  ARG184      0.5346
    190  NH1       26.0060   28.6320    0.5570 N.pl3 184  ARG184      0.1354
    191  NH2       24.3760   27.3360   -0.4890 N.pl3 184  ARG184      0.1354
    192  N         29.1260   22.5490    3.3380 N.am  185  ASP185     -0.1974
    193  CA        29.2140   21.2700    2.6240 C.3   185  ASP185      0.1709
    194  C         29.3520   19.9930    3.4810 C.2   185  ASP185      0.2293
    195  O         28.6500   18.9950    3.2210 O.2   185  ASP185     -0.2864
    196  CB        30.2980   21.3450    1.5620 C.3   185  ASP185      0.1436
    197  CG        29.9450   22.3610    0.4570 C.2   185  ASP185      0.3671
    198  OD1       28.7150   22.5990    0.2130 O.co2 185  ASP185     -0.2456
    199  OD2       30.8930   22.9300   -0.1170 O.co2 185  ASP185     -0.2456
    200  N         25.7200   19.4270    5.2450 N.3   188  HIS188     -0.1241
    201  CA        24.7920   18.7890    4.2970 C.3   188  HIS188      0.1621
    202  C         25.1170   17.3230    3.9880 C.2   188  HIS188      0.2264
    203  O         24.2410   16.4340    4.0540 O.2   188  HIS188     -0.2867
    204  CB        24.7500   19.6230    3.0640 C.3   188  HIS188      0.0745
    205  CG        24.2240   21.0020    3.3090 C.ar  188  HIS188      0.0817
    206  ND1       24.6460   22.1000    2.5970 N.ar  188  HIS188     -0.2268
    207  CD2       23.2680   21.4510    4.1540 C.ar  188  HIS188      0.1154
    208  CE1       23.9980   23.1770    3.0130 C.ar  188  HIS188      0.1986
    209  NE2       23.1530   22.8090    3.9550 N.ar  188  HIS188     -0.2212
    210  N         22.3240   15.3450    6.2790 N.3   192  VAL192     -0.1245
    211  CA        21.1270   15.0220    5.4860 C.3   192  VAL192      0.1561
    212  C         21.2120   13.5810    5.0240 C.2   192  VAL192      0.2260
    213  O         20.2440   12.8340    5.0720 O.2   192  VAL192     -0.2867
    214  CB        20.9060   16.0210    4.3640 C.3   192  VAL192      0.0252
    215  CG1       19.4340   15.9390    3.8540 C.3   192  VAL192      0.0019
    216  CG2       21.1800   17.4530    4.8750 C.3   192  VAL192      0.0019
    217  N         18.4280   10.9010    5.7150 N.3   196  LEU196     -0.1245
    218  CA        17.7340   10.2670    4.5830 C.3   196  LEU196      0.1561
    219  C         17.7150    8.7500    4.7370 C.2   196  LEU196      0.2260
    220  O         16.6840    8.1100    4.5820 O.2   196  LEU196     -0.2867
    221  CB        18.4170   10.6370    3.2700 C.3   196  LEU196      0.0270
    222  CG        18.1610   11.9980    2.6240 C.3   196  LEU196      0.0019
    223  CD1       19.2000   12.2350    1.5460 C.3   196  LEU196      0.0001
    224  CD2       16.7990   12.0140    2.0700 C.3   196  LEU196      0.0001
    225  N         15.1530   16.6140    6.2910 N.3   208  VAL208     -0.1231
    226  CA        15.9450   16.4910    5.0510 C.3   208  VAL208      0.1692
    227  C         15.7430   17.6680    4.0770 C.2   208  VAL208      0.2592
    228  O         16.5130   17.8510    3.1280 O.2   208  VAL208     -0.2718
    229  CB        15.7100   15.1270    4.3260 C.3   208  VAL208      0.0266
    230  CG1       16.2890   13.9620    5.1310 C.3   208  VAL208      0.0020
    231  CG2       14.1980   14.9020    3.9940 C.3   208  VAL208      0.0020
    232  N         14.7240   18.4740    4.3210 N.am  209  LEU209     -0.1966
    233  CA        14.4800   19.6190    3.4580 C.3   209  LEU209      0.1728
    234  C         14.9230   20.9230    4.1210 C.2   209  LEU209      0.2616
    235  O         15.1210   20.9710    5.3300 O.2   209  LEU209     -0.2715
    236  CB        13.0040   19.6650    3.0260 C.3   209  LEU209      0.0311
    237  CG        12.5900   18.4440    2.2030 C.3   209  LEU209      0.0022
    238  CD1       11.0450   18.1850    2.1910 C.3   209  LEU209      0.0001
    239  CD2       13.1790   18.5930    0.7850 C.3   209  LEU209      0.0001
    240  N         15.0750   21.9730    3.3330 N.am  210  CYS210     -0.1968
    241  CA        15.6970   23.2120    3.7930 C.3   210  CYS210      0.1712
    242  C         14.9960   23.8370    4.9700 C.2   210  CYS210      0.2296
    243  O         15.6640   24.2630    5.9360 O.2   210  CYS210     -0.2864
    244  CB        15.7410   24.2400    2.6700 C.3   210  CYS210      0.0983
    245  SG        16.2680   23.5490    1.0920 S.3   210  CYS210     -0.0798
@<TRIPOS>BOND
     1   175   176    1
     2   178   177    2
     3   177   176    1
     4   176   179    1
     5   171   172    2
     6   171   170    1
     7   159   160    2
     8   159   158    1
     9   157   158    1
    10   169   170    1
    11   170   173    1
    12   173   174    1
    13   179   180    1
    14   158   161    1
    15   161   162    1
    16   162   163   ar
    17   162   164   ar
    18   163   165   ar
    19   144   145   ar
    20   144   142   ar
    21   164   166   ar
    22   145   143   ar
    23   165   167   ar
    24   142   140   ar
    25    96    95    2
    26   150   147    1
    27   150   151    1
    28   143   141   ar
    29   166   167   ar
    30   152   151    1
    31   152   153    1
    32    54    52   ar
    33    54    53   ar
    34   147   146    1
    35   147   148    1
    36   167   168    1
    37   138   137    2
    38   140   141   ar
    39   140   139    1
    40    95    94    1
    41    95    99   am
    42    69    67    1
    43    52    50   ar
    44    94    97    1
    45    94    93    1
    46    53    51   ar
    47   137   136    1
    48   153   154    2
    49    97    98    1
    50   104   103    1
    51    68    67    1
    52   155   154    1
    53    19    20    2
    54    19    18    1
    55   148   149    2
    56    15    13    1
    57   100    99    1
    58   100   103    1
    59   100   101    1
    60    12    11    2
    61   154   156    1
    62   139   136    1
    63    32    30   ar
    64    32    34   ar
    65    30    29   ar
    66    67    66    1
    67    21    22    1
    68    21    18    1
    69    21    23    1
    70    16    14    1
    71    13    14    1
    72    13    10    1
    73    50    51   ar
    74    50    49    1
    75   102   101    2
    76   136   135    1
    77    17    18    1
    78   101   105   am
    79    11    10    1
    80    63    66    1
    81    63    62    1
    82    63    64    1
    83    34    33   ar
    84    29    28    1
    85    29    31   ar
    86    28    25    1
    87   105   106    1
    88    65    64    2
    89    25    24    1
    90    25    26    1
    91    10     9    1
    92   135   128   am
    93    49    46    1
    94    64    70   am
    95    46    45    1
    96    46    47    1
    97   107   106    1
    98   107   108    2
    99    48    47    2
   100   106   109    1
   101    31    33   ar
   102   128   129    2
   103   128   127    1
   104    82    81    2
   105   132   133    1
   106   132   131    1
   107    79    80    1
   108    85    84   ar
   109    47    55   am
   110    26    27    2
   111    90    89    2
   112   130   127    1
   113   130   131    1
   114    70    71    1
   115   133   134    1
   116    89    88    1
   117   127   126    1
   118    81    80    1
   119    81    87   am
   120     4     3    2
   121    72    73    2
   122    72    71    1
   123   109   110    1
   124    84    86   ar
   125    84    83    1
   126    80    83    1
   127   110   111   ar
   128   110   112   ar
   129   111   113   ar
   130    55    56    1
   131    71    74    1
   132   113   114   ar
   133   112   114   ar
   134    88    87    1
   135    88    91    1
   136   126   117   am
   137     3     2    1
   138    56    57    1
   139    56    59    1
   140    58    57    2
   141    35    36    1
   142     7     5    1
   143    38    37    2
   144    36    37    1
   145    36    39    1
   146   118   117    2
   147     5     2    1
   148     5     6    1
   149   117   116    1
   150    74    75    1
   151    91    92    1
   152    42    44   ar
   153    42    40   ar
   154     2     1    1
   155    44    43   ar
   156     8     6    1
   157    61    59    1
   158    75    76    1
   159    78    76   ar
   160    59    60    1
   161    40    39    1
   162    40    41   ar
   163   116   115    1
   164   116   119    1
   165    43    41   ar
   166    76    77   ar
   167   119   120    1
   168   122   120   ar
   169   122   124   ar
   170   120   121   ar
   171   191   189    1
   172   124   125   ar
   173   199   197   ar
   174   198   197   ar
   175   189   190    1
   176   189   188    2
   177   197   196    1
   178   121   123   ar
   179   125   123   ar
   180   239   237    1
   181   188   187    1
   182   245   244    1
   183   223   222    1
   184   196   193    1
   185   187   186    1
   186   224   222    1
   187   238   237    1
   188   237   236    1
   189   206   208   ar
   190   206   205   ar
   191   193   192    1
   192   193   194    1
   193   222   221    1
   194   244   241    1
   195   208   209   ar
   196   236   233    1
   197   204   205    1
   198   204   201    1
   199   186   185    1
   200   228   227    2
   201   195   194    2
   202   221   218    1
   203   205   207   ar
   204   240   241    1
   205   240   234   am
   206   192   183   am
   207   233   234    1
   208   233   232    1
   209   241   242    1
   210   215   214    1
   211   185   182    1
   212   209   207   ar
   213   202   203    2
   214   202   201    1
   215   231   229    1
   216   227   232   am
   217   227   226    1
   218   183   184    2
   219   183   182    1
   220   234   235    2
   221   201   200    1
   222   229   226    1
   223   229   230    1
   224   214   216    1
   225   214   211    1
   226   220   219    2
   227   218   219    1
   228   218   217    1
   229   182   181    1
   230   242   243    2
   231   212   213    2
   232   212   211    1
   233   226   225    1
   234   211   210    1
