@<TRIPOS>MOLECULE
tmp/1z1nA02.pdb
 181 173 0 0 0
SMALL
GASTEIGER

@<TRIPOS>ATOM
      1  N         39.9590   32.1580   37.6920 N.3   241  LEU241     -0.1231
      2  CA        40.6950   32.6760   36.5690 C.3   241  LEU241      0.1693
      3  C         41.5730   33.7840   37.1320 C.2   241  LEU241      0.2592
      4  O         41.0690   34.7850   37.6130 O.2   241  LEU241     -0.2718
      5  CB        39.7520   33.1740   35.4600 C.3   241  LEU241      0.0284
      6  CG        38.7630   32.0680   35.0780 C.3   241  LEU241      0.0019
      7  CD1       37.8720   32.5590   34.0200 C.3   241  LEU241      0.0001
      8  CD2       39.6080   30.8790   34.5040 C.3   241  LEU241      0.0001
      9  N         42.8830   33.5910   37.0860 N.am  242  VAL242     -0.1966
     10  CA        43.7920   34.4080   37.8850 C.3   242  VAL242      0.1727
     11  C         44.9080   34.9450   37.0190 C.2   242  VAL242      0.2616
     12  O         45.3930   34.2360   36.1630 O.2   242  VAL242     -0.2715
     13  CB        44.5940   33.6480   38.9530 C.3   242  VAL242      0.0290
     14  CG1       44.7660   34.5460   40.2170 C.3   242  VAL242      0.0023
     15  CG2       44.0570   32.3610   39.2500 C.3   242  VAL242      0.0023
     16  N         45.3030   36.2020   37.2730 N.am  243  ALA243     -0.1963
     17  CA        46.4760   36.7620   36.6500 C.3   243  ALA243      0.1728
     18  C         47.7590   35.9610   36.9660 C.2   243  ALA243      0.2616
     19  O         48.0870   35.7320   38.1290 O.2   243  ALA243     -0.2715
     20  CB        46.6430   38.2270   37.1140 C.3   243  ALA243      0.0334
     21  N         48.5000   35.5830   35.9420 N.am  244  GLY244     -0.1955
     22  CA        49.8640   35.0940   36.1750 C.3   244  GLY244      0.1869
     23  C         50.2300   34.2560   34.9820 C.2   244  GLY244      0.2309
     24  O         49.5280   34.2820   33.9830 O.2   244  GLY244     -0.2863
     25  N         50.6840   42.0540   41.2090 N.3   258  ALA258     -0.1231
     26  CA        50.2800   42.1260   39.8410 C.3   258  ALA258      0.1694
     27  C         48.8450   41.7160   39.5380 C.2   258  ALA258      0.2592
     28  O         48.4510   41.8230   38.3870 O.2   258  ALA258     -0.2718
     29  CB        51.1790   41.1760   39.0490 C.3   258  ALA258      0.0304
     30  N         48.0690   41.2330   40.5030 N.am  259  ALA259     -0.1966
     31  CA        46.8240   40.5260   40.1270 C.3   259  ALA259      0.1728
     32  C         45.4570   41.2940   40.2080 C.2   259  ALA259      0.2617
     33  O         44.4210   40.7280   39.8480 O.2   259  ALA259     -0.2715
     34  CB        46.7500   39.1310   40.8270 C.3   259  ALA259      0.0334
     35  N         45.4430   42.5880   40.5470 N.am  260  GLY260     -0.1941
     36  CA        44.1520   43.2420   40.8890 C.3   260  GLY260      0.1998
     37  C         43.4590   43.4910   39.5890 C.2   260  GLY260      0.2480
     38  O         44.1070   43.4090   38.5330 O.2   260  GLY260     -0.2729
     39  N         42.1340   43.7370   39.5980 N.am  261  PRO261     -0.2726
     40  CA        41.1570   43.7950   40.6710 C.3   261  PRO261      0.1402
     41  C         40.8960   42.4650   41.4020 C.2   261  PRO261      0.2269
     42  O         40.3150   42.4960   42.4800 O.2   261  PRO261     -0.2865
     43  CB        39.8610   44.1890   39.9390 C.3   261  PRO261      0.0296
     44  CG        40.2270   44.6820   38.6440 C.3   261  PRO261      0.0237
     45  CD        41.5090   43.9830   38.2990 C.3   261  PRO261      0.0939
     46  N         38.7400   35.7810   39.2910 N.3   264  VAL264     -0.1245
     47  CA        37.3610   35.5760   38.9360 C.3   264  VAL264      0.1561
     48  C         36.9880   34.0850   39.1940 C.2   264  VAL264      0.2260
     49  O         37.5640   33.1680   38.5830 O.2   264  VAL264     -0.2867
     50  CB        37.1910   35.8410   37.4500 C.3   264  VAL264      0.0252
     51  CG1       35.7540   35.4670   37.0070 C.3   264  VAL264      0.0019
     52  CG2       37.5770   37.4060   37.0700 C.3   264  VAL264      0.0019
     53  N         43.5160   30.7720   28.3450 N.3   295  GLY295     -0.1225
     54  CA        44.6380   31.4810   28.8700 C.3   295  GLY295      0.1811
     55  C         45.9650   30.7400   28.8480 C.2   295  GLY295      0.2280
     56  O         46.9700   31.3820   28.9850 O.2   295  GLY295     -0.2866
     57  N         48.3890   38.1910   29.4650 N.3   301  THR301     -0.1218
     58  CA        48.3220   39.5620   29.9590 C.3   301  THR301      0.1862
     59  C         48.8700   40.5140   28.9160 C.2   301  THR301      0.2287
     60  O         48.4570   41.7170   28.8350 O.2   301  THR301     -0.2866
     61  CB        49.1340   39.7390   31.2700 C.3   301  THR301      0.1770
     62  OG1       48.4920   39.0290   32.3210 O.3   301  THR301     -0.2211
     63  CG2       49.2750   41.2090   31.7080 C.3   301  THR301      0.0375
     64  N         44.2110   38.4740   27.7270 N.3   312  THR312     -0.1203
     65  CA        43.3720   37.9370   28.7750 C.3   312  THR312      0.1994
     66  C         42.2070   38.8930   29.0400 C.2   312  THR312      0.2617
     67  O         41.0650   38.5080   28.8140 O.2   312  THR312     -0.2717
     68  CB        44.2250   37.7840   30.0080 C.3   312  THR312      0.1784
     69  OG1       45.1100   36.6560   29.8390 O.3   312  THR312     -0.2211
     70  CG2       43.4110   37.6120   31.1800 C.3   312  THR312      0.0376
     71  N         42.5010   40.1130   29.4990 N.am  313  ALA313     -0.1979
     72  CA        41.4950   41.1390   29.6840 C.3   313  ALA313      0.1597
     73  C         40.5370   41.2290   28.5100 C.2   313  ALA313      0.2287
     74  O         39.3260   41.1360   28.7030 O.2   313  ALA313     -0.2864
     75  CB        42.1240   42.4930   29.9420 C.3   313  ALA313      0.0319
     76  N         39.9100   39.1530   26.0580 N.3   315  SER315     -0.1202
     77  CA        39.1480   37.9530   25.8370 C.3   315  SER315      0.2020
     78  C         37.9990   37.7900   26.8270 C.2   315  SER315      0.2619
     79  O         37.0700   37.0020   26.5920 O.2   315  SER315     -0.2717
     80  CB        40.0520   36.7230   25.9270 C.3   315  SER315      0.2103
     81  OG        40.2930   36.4880   27.2930 O.3   315  SER315     -0.2182
     82  N         38.1180   38.4680   27.9650 N.am  316  ALA316     -0.1965
     83  CA        37.1100   38.5310   28.9730 C.3   316  ALA316      0.1728
     84  C         36.1730   39.7340   28.8280 C.2   316  ALA316      0.2616
     85  O         35.0110   39.6520   29.2220 O.2   316  ALA316     -0.2715
     86  CB        37.7490   38.6240   30.2540 C.3   316  ALA316      0.0334
     87  N         36.6940   40.8540   28.3250 N.am  317  HIS317     -0.1973
     88  CA        35.9950   42.1610   28.3600 C.3   317  HIS317      0.1656
     89  C         35.4110   42.6690   27.0390 C.2   317  HIS317      0.2291
     90  O         34.6330   43.6590   27.0420 O.2   317  HIS317     -0.2864
     91  CB        36.9210   43.2720   28.9240 C.3   317  HIS317      0.0771
     92  CG        37.3910   43.0360   30.3470 C.ar  317  HIS317      0.0820
     93  ND1       38.5620   43.5740   30.8390 N.ar  317  HIS317     -0.2267
     94  CD2       36.8530   42.3250   31.3730 C.ar  317  HIS317      0.1154
     95  CE1       38.7440   43.1780   32.0900 C.ar  317  HIS317      0.1986
     96  NE2       37.7310   42.4010   32.4350 N.ar  317  HIS317     -0.2212
     97  N         33.0200   37.3500   28.3010 N.3   325  CYS325     -0.1221
     98  CA        32.0850   37.4140   29.3650 C.3   325  CYS325      0.1808
     99  C         31.2420   38.6560   29.2320 C.2   325  CYS325      0.2601
    100  O         30.0500   38.5500   29.3620 O.2   325  CYS325     -0.2717
    101  CB        32.7400   37.5230   30.7260 C.3   325  CYS325      0.0970
    102  SG        34.3060   36.5130   31.0840 S.3   325  CYS325     -0.0800
    103  N         31.8650   39.8480   29.0990 N.am  326  VAL326     -0.1979
    104  CA        31.0900   41.0820   29.1600 C.3   326  VAL326      0.1595
    105  C         30.3390   41.2500   27.8770 C.2   326  VAL326      0.2287
    106  O         29.1660   41.6020   27.9120 O.2   326  VAL326     -0.2864
    107  CB        32.0150   42.3350   29.3480 C.3   326  VAL326      0.0276
    108  CG1       31.1580   43.6220   29.2500 C.3   326  VAL326      0.0022
    109  CG2       32.6530   42.3120   30.7460 C.3   326  VAL326      0.0022
    110  N         27.2730   38.8850   27.8800 N.3   329  HIS329     -0.1241
    111  CA        26.2390   39.3190   28.7630 C.3   329  HIS329      0.1621
    112  C         25.5450   40.5500   28.2450 C.2   329  HIS329      0.2264
    113  O         24.2940   40.6860   28.3880 O.2   329  HIS329     -0.2867
    114  CB        26.7790   39.6760   30.1210 C.3   329  HIS329      0.0745
    115  CG        27.3750   38.5350   30.9020 C.ar  329  HIS329      0.0817
    116  ND1       28.0930   38.7480   32.0650 N.ar  329  HIS329     -0.2268
    117  CD2       27.3010   37.1850   30.7480 C.ar  329  HIS329      0.1154
    118  CE1       28.4370   37.5810   32.5900 C.ar  329  HIS329      0.1986
    119  NE2       27.9460   36.6250   31.8310 N.ar  329  HIS329     -0.2212
    120  N         33.1480   49.8490   29.5530 N.3   351  LEU351     -0.1231
    121  CA        32.8450   48.9800   30.6560 C.3   351  LEU351      0.1693
    122  C         32.4640   49.8010   31.8470 C.2   351  LEU351      0.2593
    123  O         33.1020   50.7720   32.1310 O.2   351  LEU351     -0.2718
    124  CB        34.0790   48.1720   31.0440 C.3   351  LEU351      0.0284
    125  CG        34.5610   47.0280   30.1600 C.3   351  LEU351      0.0019
    126  CD1       36.1260   47.0460   30.2040 C.3   351  LEU351      0.0001
    127  CD2       33.9920   45.7130   30.6160 C.3   351  LEU351      0.0001
    128  N         31.4310   49.3860   32.5560 N.am  352  SER352     -0.1938
    129  CA        30.9470   50.0810   33.7480 C.3   352  SER352      0.2055
    130  C         31.8580   49.8120   34.9400 C.2   352  SER352      0.2642
    131  O         32.1470   48.6580   35.2350 O.2   352  SER352     -0.2714
    132  CB        29.5390   49.5930   34.0720 C.3   352  SER352      0.2130
    133  OG        29.1260   50.0030   35.3650 O.3   352  SER352     -0.2179
    134  N         32.2740   50.8750   35.6250 N.am  353  GLN353     -0.1976
    135  CA        33.0870   50.8000   36.8400 C.3   353  GLN353      0.1601
    136  C         32.3900   50.1420   38.0160 C.2   353  GLN353      0.2287
    137  O         32.9940   49.8160   39.0070 O.2   353  GLN353     -0.2864
    138  CB        33.5010   52.2170   37.2510 C.3   353  GLN353      0.0394
    139  CG        34.4970   52.8210   36.2750 C.3   353  GLN353      0.0908
    140  CD        35.8860   52.9700   36.8630 C.2   353  GLN353      0.2608
    141  OE1       36.0660   53.6390   37.8950 O.2   353  GLN353     -0.2717
    142  NE2       36.8940   52.3790   36.1840 N.am  353  GLN353     -0.0878
    143  N         30.7830   47.3520   37.6290 N.3   355  SER355     -0.1202
    144  CA        30.6080   45.9560   37.2900 C.3   355  SER355      0.2020
    145  C         31.8080   45.1170   37.7180 C.2   355  SER355      0.2619
    146  O         31.6460   43.9110   37.9640 O.2   355  SER355     -0.2717
    147  CB        30.3130   45.7700   35.8170 C.3   355  SER355      0.2103
    148  OG        31.4540   46.0960   35.0340 O.3   355  SER355     -0.2182
    149  N         32.9930   45.7540   37.8320 N.am  356  CYS356     -0.1969
    150  CA        34.2380   45.0040   38.0780 C.3   356  CYS356      0.1712
    151  C         34.1070   43.9970   39.1890 C.2   356  CYS356      0.2296
    152  O         34.5300   42.8290   39.0370 O.2   356  CYS356     -0.2864
    153  CB        35.4320   45.9630   38.3990 C.3   356  CYS356      0.0983
    154  SG        35.4270   47.4230   37.2980 S.3   356  CYS356     -0.0798
    155  N         32.5170   40.3290   39.1310 N.3   359  CYS359     -0.1221
    156  CA        33.3780   39.1850   38.6280 C.3   359  CYS359      0.1808
    157  C         34.6920   38.9720   39.3750 C.2   359  CYS359      0.2601
    158  O         35.0850   37.8240   39.6670 O.2   359  CYS359     -0.2717
    159  CB        33.7510   39.3900   37.1940 C.3   359  CYS359      0.0970
    160  SG        32.3130   39.2020   36.0530 S.3   359  CYS359     -0.0800
    161  N         35.4050   40.0840   39.6240 N.am  360  HIS360     -0.1975
    162  CA        36.6280   40.0760   40.3730 C.3   360  HIS360      0.1656
    163  C         36.4720   40.0290   41.8050 C.2   360  HIS360      0.2291
    164  O         35.8540   40.8900   42.3780 O.2   360  HIS360     -0.2864
    165  CB        37.5450   41.2630   39.9870 C.3   360  HIS360      0.0771
    166  CG        37.8780   41.2730   38.5410 C.ar  360  HIS360      0.0820
    167  ND1       38.9160   40.5530   38.0030 N.ar  360  HIS360     -0.2267
    168  CD2       37.2620   41.8600   37.5090 C.ar  360  HIS360      0.1154
    169  CE1       38.9010   40.6850   36.6990 C.ar  360  HIS360      0.1986
    170  NE2       37.9660   41.5520   36.3860 N.ar  360  HIS360     -0.2212
    171  N         24.2590   40.4840   38.5150 N.3   441  PHE441     -0.1241
    172  CA        24.9250   41.7660   38.1410 C.3   441  PHE441      0.1605
    173  C         24.1960   43.0100   38.5970 C.2   441  PHE441      0.2264
    174  O         24.8120   44.0990   38.7200 O.2   441  PHE441     -0.2867
    175  CB        25.2000   41.8050   36.6330 C.3   441  PHE441      0.0534
    176  CG        26.3460   40.9610   36.2510 C.ar  441  PHE441     -0.0203
    177  CD1       26.1360   39.6400   35.8130 C.ar  441  PHE441     -0.0042
    178  CD2       27.6850   41.4160   36.5140 C.ar  441  PHE441     -0.0042
    179  CE1       27.2580   38.7900   35.5250 C.ar  441  PHE441     -0.0003
    180  CE2       28.7900   40.5770   36.2400 C.ar  441  PHE441     -0.0003
    181  CZ        28.6150   39.2830   35.7770 C.ar  441  PHE441     -0.0000
@<TRIPOS>BOND
     1    77    80    1
     2    77    76    1
     3    77    78    1
     4    80    81    1
     5    79    78    2
     6    78    82   am
     7    89    90    2
     8    89    88    1
     9    64    65    1
    10   105   106    2
    11   105   104    1
    12   110   111    1
    13    82    83    1
    14   112   113    2
    15   112   111    1
    16    97    98    1
    17    87    88    1
    18    87    84   am
    19    53    54    1
    20    88    91    1
    21    73    74    2
    22    73    72    1
    23   111   114    1
    24    65    66    1
    25    65    68    1
    26    67    66    2
    27    84    83    1
    28    84    85    2
    29    60    59    2
    30    55    54    1
    31    55    56    2
    32    59    58    1
    33    91    92    1
    34    83    86    1
    35    66    71   am
    36   103   104    1
    37   103    99   am
    38   104   107    1
    39    99   100    2
    40    99    98    1
    41   108   107    1
    42   107   109    1
    43    98   101    1
    44    57    58    1
    45    71    72    1
    46   120   121    1
    47    72    75    1
    48    69    68    1
    49    58    61    1
    50    68    70    1
    51   114   115    1
    52   125   126    1
    53   125   127    1
    54   125   124    1
    55    92    93   ar
    56    92    94   ar
    57   121   124    1
    58   121   122    1
    59   101   102    1
    60   117   115   ar
    61   117   119   ar
    62    93    95   ar
    63   115   116   ar
    64    61    63    1
    65    61    62    1
    66    94    96   ar
    67   119   118   ar
    68   122   123    2
    69   122   128   am
    70   116   118   ar
    71    95    96   ar
    72   128   129    1
    73   129   132    1
    74   129   130    1
    75    24    23    2
    76     7     6    1
    77   132   133    1
    78     8     6    1
    79   130   131    2
    80   130   134   am
    81    23    22    1
    82   148   147    1
    83     6     5    1
    84     5     2    1
    85   179   181   ar
    86   179   177   ar
    87   134   135    1
    88   181   180   ar
    89   177   176   ar
    90   147   144    1
    91    21    22    1
    92    21    18   am
    93   160   159    1
    94    12    11    2
    95   142   140   am
    96   180   178   ar
    97   176   178   ar
    98   176   175    1
    99   139   140    1
   100   139   138    1
   101   170   169   ar
   102   170   168   ar
   103     2     3    1
   104     2     1    1
   105   175   172    1
   106    17    18    1
   107    17    20    1
   108    17    16    1
   109   169   167   ar
   110   135   138    1
   111   135   136    1
   112   140   141    2
   113    18    19    2
   114    51    50    1
   115    11    16   am
   116    11    10    1
   117    52    50    1
   118     9     3   am
   119     9    10    1
   120     3     4    2
   121   159   156    1
   122   144   143    1
   123   144   145    1
   124   154   153    1
   125    50    47    1
   126   168   166   ar
   127   145   149   am
   128   145   146    2
   129   149   150    1
   130    10    13    1
   131   167   166   ar
   132   136   137    2
   133   150   153    1
   134   150   151    1
   135   172   171    1
   136   172   173    1
   137    45    44    1
   138    45    39    1
   139    28    27    2
   140    38    37    2
   141   166   165    1
   142    49    48    2
   143   173   174    2
   144   156   155    1
   145   156   157    1
   146    44    43    1
   147    47    48    1
   148    47    46    1
   149    13    15    1
   150    13    14    1
   151   152   151    2
   152    29    26    1
   153   157   161   am
   154   157   158    2
   155    27    26    1
   156    27    30   am
   157    37    39   am
   158    37    36    1
   159    39    40    1
   160   161   162    1
   161    26    25    1
   162    33    32    2
   163    43    40    1
   164   165   162    1
   165    31    32    1
   166    31    30    1
   167    31    34    1
   168    32    35   am
   169   162   163    1
   170    35    36    1
   171    40    41    1
   172    41    42    2
   173   163   164    2
