@<TRIPOS>MOLECULE
tmp/1z1nA06.pdb
 198 198 0 0 0
SMALL
GASTEIGER

@<TRIPOS>ATOM
      1  N          1.5120   62.7180   35.8600 N.3   406  LEU406     -0.1231
      2  CA         2.6070   63.6010   35.5430 C.3   406  LEU406      0.1693
      3  C          2.1290   64.8790   34.8460 C.2   406  LEU406      0.2592
      4  O          1.6390   64.8150   33.7700 O.2   406  LEU406     -0.2718
      5  CB         3.6210   62.8540   34.6590 C.3   406  LEU406      0.0284
      6  CG         4.1920   61.5540   35.2720 C.3   406  LEU406      0.0019
      7  CD1        5.0090   60.8050   34.2130 C.3   406  LEU406      0.0001
      8  CD2        5.0440   61.9450   36.4720 C.3   406  LEU406      0.0001
      9  N          2.3120   66.0340   35.4500 N.am  407  ASN407     -0.1960
     10  CA         1.7580   67.3120   34.9040 C.3   407  ASN407      0.1819
     11  C          2.8310   68.4180   34.8710 C.2   407  ASN407      0.2621
     12  O          2.5930   69.5340   35.3920 O.2   407  ASN407     -0.2715
     13  CB         0.5210   67.7500   35.7290 C.3   407  ASN407      0.1195
     14  CG        -0.6090   68.4110   34.8700 C.2   407  ASN407      0.2630
     15  OD1       -0.5300   68.5170   33.6340 O.2   407  ASN407     -0.2716
     16  ND2       -1.6780   68.8210   35.5450 N.am  407  ASN407     -0.0877
     17  N          3.9980   68.1120   34.2670 N.am  408  TYR408     -0.1960
     18  CA         5.1240   69.0660   34.2660 C.3   408  TYR408      0.1771
     19  C          4.9380   70.1400   33.2390 C.2   408  TYR408      0.2619
     20  O          5.5220   71.1950   33.3770 O.2   408  TYR408     -0.2715
     21  CB         6.4740   68.3910   34.0040 C.3   408  TYR408      0.0574
     22  CG         6.9640   67.6350   35.1910 C.ar  408  TYR408     -0.0198
     23  CD1        6.6240   66.3080   35.3960 C.ar  408  TYR408     -0.0009
     24  CD2        7.7320   68.2850   36.1320 C.ar  408  TYR408     -0.0009
     25  CE1        7.0340   65.6100   36.5900 C.ar  408  TYR408      0.0417
     26  CE2        8.1650   67.6690   37.2720 C.ar  408  TYR408      0.0417
     27  CZ         7.8090   66.3170   37.5240 C.ar  408  TYR408      0.1957
     28  OH         8.3010   65.7940   38.7030 O.3   408  TYR408     -0.2866
     29  N          4.1560   69.8840   32.1870 N.am  409  MET409     -0.1977
     30  CA         4.1030   70.8340   31.0460 C.3   409  MET409      0.1605
     31  C          2.7000   71.3890   30.7160 C.2   409  MET409      0.2287
     32  O          1.8150   70.6390   30.3050 O.2   409  MET409     -0.2864
     33  CB         4.7700   70.2120   29.8120 C.3   409  MET409      0.0413
     34  CG         6.2860   70.2600   29.8310 C.3   409  MET409      0.0598
     35  SD         6.9340   68.6350   29.4500 S.3   409  MET409     -0.1393
     36  CE         5.8960   68.0740   28.1720 C.3   409  MET409      0.0692
     37  N         -0.4570   73.9520   25.5130 N.3   412  ASP412     -0.1225
     38  CA        -0.4550   72.4980   25.6720 C.3   412  ASP412      0.1805
     39  C         -1.6260   71.8820   24.8730 C.2   412  ASP412      0.2598
     40  O         -2.5400   72.6100   24.4340 O.2   412  ASP412     -0.2718
     41  CB        -0.6320   72.0870   27.1610 C.3   412  ASP412      0.1424
     42  CG         0.4940   72.5770   28.0810 C.2   412  ASP412      0.3668
     43  OD1        1.6930   72.5520   27.6830 O.co2 412  ASP412     -0.2456
     44  OD2        0.1720   72.9690   29.2320 O.co2 412  ASP412     -0.2456
     45  N         -1.6040   70.5410   24.7210 N.am  413  GLU413     -0.1965
     46  CA        -2.6470   69.7960   23.9770 C.3   413  GLU413      0.1733
     47  C         -3.1310   68.5190   24.6670 C.2   413  GLU413      0.2616
     48  O         -4.0570   67.8460   24.1680 O.2   413  GLU413     -0.2715
     49  CB        -2.1530   69.4350   22.5800 C.3   413  GLU413      0.0429
     50  CG        -1.3020   70.5100   21.8970 C.3   413  GLU413      0.1163
     51  CD        -1.2060   70.3380   20.3750 C.2   413  GLU413      0.3649
     52  OE1       -0.0560   70.2150   19.8750 O.co2 413  GLU413     -0.2457
     53  OE2       -2.2650   70.3310   19.6800 O.co2 413  GLU413     -0.2457
     54  N         -2.5180   68.1570   25.8030 N.am  414  TRP414     -0.1960
     55  CA        -2.8040   66.8550   26.4100 C.3   414  TRP414      0.1771
     56  C         -3.0170   66.9490   27.8980 C.2   414  TRP414      0.2620
     57  O         -2.5080   67.8260   28.5460 O.2   414  TRP414     -0.2715
     58  CB        -1.7020   65.8500   26.0630 C.3   414  TRP414      0.0590
     59  CG        -1.4900   65.6610   24.6010 C.ar  414  TRP414      0.0006
     60  CD1       -0.5660   66.2820   23.8300 C.ar  414  TRP414      0.0946
     61  CD2       -2.2040   64.7730   23.7340 C.ar  414  TRP414      0.0152
     62  NE1       -0.6640   65.8600   22.5300 N.ar  414  TRP414     -0.2442
     63  CE2       -1.6550   64.9160   22.4490 C.ar  414  TRP414      0.0810
     64  CE3       -3.2550   63.8690   23.9190 C.ar  414  TRP414      0.0012
     65  CZ2       -2.1320   64.2110   21.3600 C.ar  414  TRP414      0.0191
     66  CZ3       -3.7260   63.1480   22.8230 C.ar  414  TRP414      0.0001
     67  CH2       -3.1720   63.3280   21.5690 C.ar  414  TRP414      0.0015
     68  N         -3.8520   66.0940   28.4370 N.am  415  GLN415     -0.1963
     69  CA        -3.9530   65.9980   29.8640 C.3   415  GLN415      0.1733
     70  C         -2.6470   65.4250   30.4600 C.2   415  GLN415      0.2616
     71  O         -1.7050   65.0940   29.7100 O.2   415  GLN415     -0.2715
     72  CB        -5.1510   65.1320   30.1850 C.3   415  GLN415      0.0408
     73  CG        -6.4590   65.8790   29.8060 C.3   415  GLN415      0.0908
     74  CD        -7.6720   65.0840   30.1740 C.2   415  GLN415      0.2608
     75  OE1       -7.9100   64.8000   31.3520 O.2   415  GLN415     -0.2717
     76  NE2       -8.4710   64.7260   29.1660 N.am  415  GLN415     -0.0878
     77  N         -2.5730   65.3770   31.7870 N.am  416  ALA416     -0.1963
     78  CA        -1.4930   64.6880   32.5020 C.3   416  ALA416      0.1728
     79  C         -1.4390   63.1970   32.1710 C.2   416  ALA416      0.2616
     80  O         -2.4580   62.5070   32.0790 O.2   416  ALA416     -0.2715
     81  CB        -1.6650   64.8600   34.0010 C.3   416  ALA416      0.0334
     82  N         -0.2360   62.6920   32.0190 N.am  417  ALA417     -0.1977
     83  CA        -0.0180   61.2720   31.7570 C.3   417  ALA417      0.1597
     84  C         -0.2510   60.5300   33.0290 C.2   417  ALA417      0.2287
     85  O          0.1440   60.9830   34.1020 O.2   417  ALA417     -0.2864
     86  CB         1.4000   61.0770   31.2530 C.3   417  ALA417      0.0319
     87  N         10.2750   67.4210   27.9280 N.3   484  LYS484     -0.1245
     88  CA         9.3920   66.6390   27.0260 C.3   484  LYS484      0.1561
     89  C         10.1310   65.5220   26.3170 C.2   484  LYS484      0.2260
     90  O          9.6420   64.4300   26.2970 O.2   484  LYS484     -0.2867
     91  CB         8.7020   67.5020   25.9760 C.3   484  LYS484      0.0271
     92  CG         7.6200   66.7040   25.1940 C.3   484  LYS484      0.0035
     93  CD         7.1580   67.4780   23.9710 C.3   484  LYS484      0.0206
     94  CE         6.4180   66.5980   22.9950 C.3   484  LYS484      0.1093
     95  NZ         7.3160   66.1660   21.8860 N.3   484  LYS484     -0.1314
     96  N         10.9970   62.6350   28.7580 N.3   487  PHE487     -0.1227
     97  CA         9.8800   61.7240   28.9850 C.3   487  PHE487      0.1736
     98  C          9.5520   60.9410   27.7760 C.2   487  PHE487      0.2595
     99  O          9.5300   59.6850   27.8030 O.2   487  PHE487     -0.2718
    100  CB         8.6330   62.4460   29.4700 C.3   487  PHE487      0.0547
    101  CG         8.6930   62.8670   30.9230 C.ar  487  PHE487     -0.0202
    102  CD1        8.8150   61.9390   31.9350 C.ar  487  PHE487     -0.0042
    103  CD2        8.5150   64.1850   31.2810 C.ar  487  PHE487     -0.0042
    104  CE1        8.8230   62.3000   33.2550 C.ar  487  PHE487     -0.0003
    105  CE2        8.5450   64.5480   32.6190 C.ar  487  PHE487     -0.0003
    106  CZ         8.6860   63.6170   33.5940 C.ar  487  PHE487     -0.0000
    107  N          9.2970   61.6150   26.6700 N.am  488  HIS488     -0.1975
    108  CA         8.9860   60.8290   25.4680 C.3   488  HIS488      0.1656
    109  C         10.0460   59.7910   25.1210 C.2   488  HIS488      0.2291
    110  O          9.7560   58.6260   24.8290 O.2   488  HIS488     -0.2864
    111  CB         8.7120   61.7430   24.2500 C.3   488  HIS488      0.0771
    112  CG         7.2760   62.1820   24.1490 C.ar  488  HIS488      0.0820
    113  ND1        6.7990   62.8930   23.0810 N.ar  488  HIS488     -0.2267
    114  CD2        6.2020   61.9350   24.9380 C.ar  488  HIS488      0.1154
    115  CE1        5.5010   63.1120   23.2350 C.ar  488  HIS488      0.1986
    116  NE2        5.1170   62.5320   24.3470 N.ar  488  HIS488     -0.2212
    117  N         10.1020   56.9780   28.0860 N.3   491  CYS491     -0.1221
    118  CA         8.8200   56.2270   28.1690 C.3   491  CYS491      0.1808
    119  C          8.6000   55.4020   26.9530 C.2   491  CYS491      0.2601
    120  O          8.5660   54.1490   27.0040 O.2   491  CYS491     -0.2717
    121  CB         7.6420   57.2330   28.2850 C.3   491  CYS491      0.0970
    122  SG         7.8780   58.1750   29.8110 S.3   491  CYS491     -0.0800
    123  N          8.4060   56.1110   25.8520 N.am  492  ILE492     -0.1979
    124  CA         8.1170   55.5000   24.5970 C.3   492  ILE492      0.1595
    125  C          9.2710   54.5800   24.1550 C.2   492  ILE492      0.2287
    126  O          8.9950   53.5480   23.5840 O.2   492  ILE492     -0.2864
    127  CB         7.8270   56.5270   23.5420 C.3   492  ILE492      0.0276
    128  CG1        6.6430   57.4280   23.9560 C.3   492  ILE492      0.0022
    129  CG2        7.5600   55.8400   22.1660 C.3   492  ILE492      0.0022
    130  CD1        6.4280   58.7600   23.0220 C.3   492  ILE492      0.0001
    131  N          8.8670   51.2460   25.6420 N.3   495  HIS495     -0.1241
    132  CA         7.6830   50.5860   25.0720 C.3   495  HIS495      0.1621
    133  C          8.0510   50.0430   23.7260 C.2   495  HIS495      0.2264
    134  O          7.7220   48.8940   23.3920 O.2   495  HIS495     -0.2867
    135  CB         6.4610   51.5720   24.9290 C.3   495  HIS495      0.0745
    136  CG         5.8100   51.8780   26.2530 C.ar  495  HIS495      0.0817
    137  ND1        4.5450   52.3880   26.3730 N.ar  495  HIS495     -0.2268
    138  CD2        6.2450   51.6680   27.5200 C.ar  495  HIS495      0.1154
    139  CE1        4.2490   52.5390   27.6520 C.ar  495  HIS495      0.1986
    140  NE2        5.2880   52.1570   28.3680 N.ar  495  HIS495     -0.2212
    141  N          0.9230   51.3730   25.9060 N.3   502  PRO502     -0.2102
    142  CA         0.6220   52.1000   24.6540 C.3   502  PRO502      0.1504
    143  C          1.8230   52.1880   23.6870 C.2   502  PRO502      0.2576
    144  O          2.9640   52.4400   24.1490 O.2   502  PRO502     -0.2718
    145  CB         0.2740   53.5370   25.1290 C.3   502  PRO502      0.0282
    146  CG         0.2360   53.5260   26.5910 C.3   502  PRO502      0.0208
    147  CD         0.8980   52.2500   27.0960 C.3   502  PRO502      0.0893
    148  N          1.5710   52.0530   22.3750 N.am  503  LYS503     -0.1966
    149  CA         2.6040   52.2080   21.3680 C.3   503  LYS503      0.1728
    150  C          2.8640   53.6920   21.1220 C.2   503  LYS503      0.2616
    151  O          2.0720   54.5250   21.4850 O.2   503  LYS503     -0.2715
    152  CB         2.1860   51.5950   20.0400 C.3   503  LYS503      0.0311
    153  CG         1.7250   50.1260   20.0840 C.3   503  LYS503      0.0038
    154  CD         0.4790   49.9940   19.1410 C.3   503  LYS503      0.0206
    155  CE         0.3760   48.6440   18.4650 C.3   503  LYS503      0.1093
    156  NZ         0.8480   47.4830   19.2800 N.3   503  LYS503     -0.1314
    157  N          3.9490   53.9960   20.4450 N.am  504  ALA504     -0.1963
    158  CA         4.3800   55.3830   20.2900 C.3   504  ALA504      0.1728
    159  C          3.2810   56.2290   19.6440 C.2   504  ALA504      0.2617
    160  O          3.2060   57.4460   19.8750 O.2   504  ALA504     -0.2715
    161  CB         5.5860   55.4340   19.4740 C.3   504  ALA504      0.0334
    162  N          2.4490   55.6000   18.8040 N.am  505  THR505     -0.1937
    163  CA         1.4080   56.3200   18.0200 C.3   505  THR505      0.2028
    164  C          0.1030   56.3570   18.7890 C.2   505  THR505      0.2642
    165  O         -0.8490   57.0720   18.3950 O.2   505  THR505     -0.2714
    166  CB         1.1800   55.6550   16.6640 C.3   505  THR505      0.1808
    167  OG1        0.8610   54.2670   16.8580 O.3   505  THR505     -0.2208
    168  CG2        2.4500   55.7740   15.7850 C.3   505  THR505      0.0379
    169  N          0.0680   55.6530   19.9260 N.am  506  ASP506     -0.1957
    170  CA        -1.1540   55.5930   20.7560 C.3   506  ASP506      0.1840
    171  C         -1.0990   56.7220   21.7930 C.2   506  ASP506      0.2622
    172  O         -1.0870   56.4830   22.9840 O.2   506  ASP506     -0.2715
    173  CB        -1.3230   54.2040   21.4050 C.3   506  ASP506      0.1450
    174  CG        -2.6150   54.0620   22.1530 C.2   506  ASP506      0.3671
    175  OD1       -3.4930   54.9530   22.0070 O.co2 506  ASP506     -0.2456
    176  OD2       -2.7770   53.0550   22.8860 O.co2 506  ASP506     -0.2456
    177  N         -1.0710   57.9760   21.3200 N.am  507  CYS507     -0.1968
    178  CA        -0.9100   59.1290   22.2220 C.3   507  CYS507      0.1712
    179  C         -1.7760   59.0860   23.3990 C.2   507  CYS507      0.2296
    180  O         -1.3400   59.2740   24.4990 O.2   507  CYS507     -0.2864
    181  CB        -1.2900   60.4100   21.5140 C.3   507  CYS507      0.0983
    182  SG        -0.6070   60.5510   19.9300 S.3   507  CYS507     -0.0798
    183  N         -1.2480   57.1420   26.7720 N.3   510  CYS510     -0.1221
    184  CA        -0.5870   57.7880   27.9110 C.3   510  CYS510      0.1808
    185  C         -1.2500   59.0530   28.4210 C.2   510  CYS510      0.2601
    186  O         -1.2960   59.2860   29.6220 O.2   510  CYS510     -0.2717
    187  CB         0.8690   58.1390   27.5980 C.3   510  CYS510      0.0970
    188  SG         1.8320   56.6730   27.4060 S.3   510  CYS510     -0.0800
    189  N         -1.6570   59.9390   27.5350 N.am  511  HIS511     -0.1975
    190  CA        -2.3120   61.1400   28.0220 C.3   511  HIS511      0.1656
    191  C         -3.5390   61.4500   27.1930 C.2   511  HIS511      0.2291
    192  O         -3.4660   61.4970   25.9960 O.2   511  HIS511     -0.2864
    193  CB        -1.3610   62.3390   28.0470 C.3   511  HIS511      0.0771
    194  CG        -0.3980   62.3720   26.9220 C.ar  511  HIS511      0.0820
    195  ND1       -0.7720   62.2550   25.6080 N.ar  511  HIS511     -0.2267
    196  CD2        0.9490   62.5000   26.9170 C.ar  511  HIS511      0.1154
    197  CE1        0.2920   62.3560   24.8340 C.ar  511  HIS511      0.1986
    198  NE2        1.3510   62.4980   25.6090 N.ar  511  HIS511     -0.2212
@<TRIPOS>BOND
     1   168   166    1
     2   166   167    1
     3   166   163    1
     4   163   164    1
     5   163   162    1
     6   165   164    2
     7   155   154    1
     8   155   156    1
     9   164   169   am
    10   162   159   am
    11   154   153    1
    12   161   158    1
    13   159   160    2
    14   159   158    1
    15    53    51   ar
    16    52    51   ar
    17   169   170    1
    18   182   181    1
    19   152   153    1
    20   152   149    1
    21   158   157    1
    22    51    50    1
    23   157   150   am
    24   170   173    1
    25   170   171    1
    26   150   149    1
    27   150   151    2
    28   177   171   am
    29   177   178    1
    30    65    67   ar
    31    65    63   ar
    32   149   148    1
    33   173   174    1
    34   181   178    1
    35    67    66   ar
    36   171   172    2
    37    95    94    1
    38    50    49    1
    39   175   174   ar
    40   174   176   ar
    41   129   127    1
    42   178   179    1
    43   148   143   am
    44    63    62   ar
    45    63    61   ar
    46    62    60   ar
    47    49    46    1
    48    66    64   ar
    49    94    93    1
    50   130   128    1
    51   113   115   ar
    52   113   112   ar
    53   115   116   ar
    54   134   133    2
    55   179   180    2
    56   127   128    1
    57   127   124    1
    58   126   125    2
    59   143   144    2
    60   143   142    1
    61   133   132    1
    62    61    64   ar
    63    61    59   ar
    64    60    59   ar
    65    93    92    1
    66    46    47    1
    67    46    45    1
    68   112   111    1
    69   112   114   ar
    70   125   124    1
    71    48    47    2
    72   111   108    1
    73   116   114   ar
    74    40    39    2
    75   124   123    1
    76    59    58    1
    77   142   145    1
    78   142   141    1
    79    47    54   am
    80    45    39   am
    81   110   109    2
    82   197   195   ar
    83   197   198   ar
    84    39    38    1
    85   135   132    1
    86   135   136    1
    87   132   131    1
    88   109   108    1
    89   145   146    1
    90    92    91    1
    91   108   107    1
    92    37    38    1
    93   195   194   ar
    94   198   196   ar
    95    38    41    1
    96    54    55    1
    97   123   119   am
    98   141   147    1
    99    91    88    1
   100   192   191    2
   101    58    55    1
   102   136   137   ar
   103   136   138   ar
   104    90    89    2
   105    89    88    1
   106   137   139   ar
   107    55    56    1
   108   146   147    1
   109   107    98   am
   110   183   184    1
   111   196   194   ar
   112   194   193    1
   113   119   120    2
   114   119   118    1
   115    88    87    1
   116    41    42    1
   117   191   190    1
   118   188   187    1
   119   138   140   ar
   120   189   190    1
   121   189   185   am
   122   187   184    1
   123   139   140   ar
   124    43    42   ar
   125    98    99    2
   126    98    97    1
   127    56    68   am
   128    56    57    2
   129   184   185    1
   130   190   193    1
   131    42    44   ar
   132   117   118    1
   133   118   121    1
   134    36    35    1
   135   121   122    1
   136   185   186    2
   137    68    69    1
   138    96    97    1
   139    97   100    1
   140    76    74   am
   141    35    34    1
   142   100   101    1
   143    71    70    2
   144    73    74    1
   145    73    72    1
   146    33    34    1
   147    33    30    1
   148    69    72    1
   149    69    70    1
   150    74    75    2
   151    32    31    2
   152    70    77   am
   153    31    30    1
   154   101   103   ar
   155   101   102   ar
   156    30    29    1
   157    86    83    1
   158   103   105   ar
   159    83    82    1
   160    83    84    1
   161    77    78    1
   162   102   104   ar
   163    82    79   am
   164    80    79    2
   165    79    78    1
   166    29    19   am
   167    78    81    1
   168   105   106   ar
   169    84    85    2
   170    19    20    2
   171    19    18    1
   172   104   106   ar
   173    15    14    2
   174     4     3    2
   175    21    18    1
   176    21    22    1
   177     7     6    1
   178    18    17    1
   179    17    11   am
   180     5     6    1
   181     5     2    1
   182     3     9   am
   183     3     2    1
   184    14    16   am
   185    14    13    1
   186    11    10    1
   187    11    12    2
   188    10     9    1
   189    10    13    1
   190    22    23   ar
   191    22    24   ar
   192     6     8    1
   193    23    25   ar
   194     2     1    1
   195    24    26   ar
   196    25    27   ar
   197    26    27   ar
   198    27    28    1
