@<TRIPOS>MOLECULE
tmp/1z1nA10.pdb
 178 173 0 0 0
SMALL
GASTEIGER

@<TRIPOS>ATOM
      1  N         23.7010   29.7370   -7.0090 N.3     8  ILE8       -0.1231
      2  CA        24.6420   28.9110   -7.7310 C.3     8  ILE8        0.1692
      3  C         25.6810   29.8330   -8.3320 C.2     8  ILE8        0.2592
      4  O         25.3820   30.5160   -9.3010 O.2     8  ILE8       -0.2718
      5  CB        23.9570   28.1320   -8.8670 C.3     8  ILE8        0.0266
      6  CG1       22.5830   27.6480   -8.4000 C.3     8  ILE8        0.0019
      7  CG2       24.8600   27.0280   -9.3600 C.3     8  ILE8        0.0020
      8  CD1       22.0970   26.3510   -8.9820 C.3     8  ILE8        0.0001
      9  N         26.8690   29.8930   -7.7410 N.am    9  ASP9       -0.1960
     10  CA        27.9520   30.6320   -8.3690 C.3     9  ASP9        0.1840
     11  C         29.1860   29.7490   -8.4880 C.2     9  ASP9        0.2623
     12  O         30.3080   30.2290   -8.4860 O.2     9  ASP9       -0.2715
     13  CB        28.2300   31.9900   -7.6870 C.3     9  ASP9        0.1450
     14  CG        28.4870   31.8910   -6.1600 C.2     9  ASP9        0.3671
     15  OD1       29.1080   30.9330   -5.6550 O.co2   9  ASP9       -0.2456
     16  OD2       28.0810   32.8250   -5.4460 O.co2   9  ASP9       -0.2456
     17  N         28.9580   28.4470   -8.6130 N.am   10  THR10      -0.1937
     18  CA        30.0410   27.4790   -8.6060 C.3    10  THR10       0.2028
     19  C         31.2010   27.9680   -9.4580 C.2    10  THR10       0.2642
     20  O         32.3510   27.9320   -9.0060 O.2    10  THR10      -0.2714
     21  CB        29.5720   26.1010   -9.0890 C.3    10  THR10       0.1808
     22  OG1       28.2410   25.8620   -8.6120 O.3    10  THR10      -0.2208
     23  CG2       30.4960   25.0020   -8.5810 C.3    10  THR10       0.0379
     24  N         30.8870   28.4740  -10.6570 N.am   11  ALA11      -0.1977
     25  CA        31.8900   28.8820  -11.6520 C.3    11  ALA11       0.1597
     26  C         32.5890   30.2410  -11.4380 C.2    11  ALA11       0.2287
     27  O         33.2420   30.7550  -12.3520 O.2    11  ALA11      -0.2864
     28  CB        31.2870   28.8380  -13.0430 C.3    11  ALA11       0.0319
     29  N         32.3880   36.7880  -13.2990 N.3    17  LEU17      -0.1231
     30  CA        31.2560   36.2400  -14.0010 C.3    17  LEU17       0.1693
     31  C         30.9690   37.1190  -15.2110 C.2    17  LEU17       0.2592
     32  O         31.2860   38.3230  -15.2200 O.2    17  LEU17      -0.2718
     33  CB        30.0130   36.1740  -13.0950 C.3    17  LEU17       0.0284
     34  CG        29.9350   35.2370  -11.8780 C.3    17  LEU17       0.0019
     35  CD1       28.5230   35.2220  -11.3460 C.3    17  LEU17       0.0001
     36  CD2       30.3940   33.8110  -12.1540 C.3    17  LEU17       0.0001
     37  N         30.3740   36.5010  -16.2290 N.am   18  GLU18      -0.1966
     38  CA        29.9100   37.2190  -17.3860 C.3    18  GLU18       0.1733
     39  C         28.5020   37.6870  -17.1100 C.2    18  GLU18       0.2616
     40  O         28.1740   38.8330  -17.4170 O.2    18  GLU18      -0.2715
     41  CB        29.9810   36.3300  -18.6190 C.3    18  GLU18       0.0429
     42  CG        31.3770   35.7120  -18.7750 C.3    18  GLU18       0.1163
     43  CD        31.7480   35.3700  -20.2020 C.2    18  GLU18       0.3649
     44  OE1       30.8360   35.2040  -21.0420 O.co2  18  GLU18      -0.2457
     45  OE2       32.9670   35.2650  -20.4720 O.co2  18  GLU18      -0.2457
     46  N         27.6920   36.8140  -16.4940 N.am   19  GLN19      -0.1977
     47  CA        26.2600   37.0880  -16.2710 C.3    19  GLN19       0.1601
     48  C         25.8760   37.4420  -14.8410 C.2    19  GLN19       0.2287
     49  O         26.6150   37.1120  -13.9060 O.2    19  GLN19      -0.2864
     50  CB        25.4170   35.8910  -16.6860 C.3    19  GLN19       0.0394
     51  CG        25.4820   35.5650  -18.1430 C.3    19  GLN19       0.0908
     52  CD        25.2890   36.7820  -19.0010 C.2    19  GLN19       0.2608
     53  OE1       26.2560   37.3050  -19.5710 O.2    19  GLN19      -0.2717
     54  NE2       24.0480   37.2650  -19.0830 N.am   19  GLN19      -0.0878
     55  N         22.6790   33.3170  -10.8510 N.3    22  VAL22      -0.1245
     56  CA        21.5530   32.3890  -10.7750 C.3    22  VAL22       0.1561
     57  C         21.0390   32.3800   -9.3240 C.2    22  VAL22       0.2260
     58  O         21.8140   32.6710   -8.3910 O.2    22  VAL22      -0.2867
     59  CB        22.0120   30.9710  -11.1490 C.3    22  VAL22       0.0252
     60  CG1       20.8130   29.9780  -11.2380 C.3    22  VAL22       0.0019
     61  CG2       22.8490   30.9970  -12.4360 C.3    22  VAL22       0.0019
     62  N         35.9170   26.4890  -16.8300 N.3    64  LYS64      -0.1245
     63  CA        34.6750   27.2410  -16.8830 C.3    64  LYS64       0.1561
     64  C         33.7400   26.6910  -17.9830 C.2    64  LYS64       0.2260
     65  O         32.5810   26.3200  -17.7430 O.2    64  LYS64      -0.2867
     66  CB        35.0110   28.7120  -17.1330 C.3    64  LYS64       0.0271
     67  CG        33.7930   29.5790  -17.4030 C.3    64  LYS64       0.0035
     68  CD        34.0510   31.0660  -17.1610 C.3    64  LYS64       0.0206
     69  CE        32.6990   31.7890  -17.1490 C.3    64  LYS64       0.1093
     70  NZ        32.7510   33.2690  -16.9190 N.3    64  LYS64      -0.1314
     71  N         30.0190   25.3810  -16.7600 N.3    68  ALA68      -0.1245
     72  CA        28.8440   26.1010  -17.2710 C.3    68  ALA68       0.1562
     73  C         28.0160   25.2920  -18.2860 C.2    68  ALA68       0.2260
     74  O         26.8060   25.4050  -18.3470 O.2    68  ALA68      -0.2867
     75  CB        29.2350   27.4510  -17.8480 C.3    68  ALA68       0.0290
     76  N         26.1090   22.7360  -16.4170 N.3    71  TYR71      -0.1227
     77  CA        25.0030   23.2770  -15.6640 C.3    71  TYR71       0.1736
     78  C         23.8270   23.3980  -16.5760 C.2    71  TYR71       0.2595
     79  O         22.8240   22.6740  -16.3700 O.2    71  TYR71      -0.2718
     80  CB        25.3320   24.5860  -14.9510 C.3    71  TYR71       0.0548
     81  CG        25.6940   24.3800  -13.4790 C.ar   71  TYR71      -0.0200
     82  CD1       27.0000   24.5950  -13.0370 C.ar   71  TYR71      -0.0009
     83  CD2       24.7240   23.9630  -12.5320 C.ar   71  TYR71      -0.0009
     84  CE1       27.3540   24.4100  -11.6860 C.ar   71  TYR71       0.0417
     85  CE2       25.0540   23.7730  -11.1600 C.ar   71  TYR71       0.0417
     86  CZ        26.3840   24.0070  -10.7430 C.ar   71  TYR71       0.1957
     87  OH        26.7980   23.8460   -9.4270 O.3    71  TYR71      -0.2866
     88  N         23.9770   24.2570  -17.5990 N.am   72  HIS72      -0.1975
     89  CA        23.0190   24.3740  -18.7160 C.3    72  HIS72       0.1656
     90  C         22.4650   23.0140  -19.1560 C.2    72  HIS72       0.2291
     91  O         21.2750   22.8070  -19.2480 O.2    72  HIS72      -0.2864
     92  CB        23.6670   25.1290  -19.8640 C.3    72  HIS72       0.0771
     93  CG        23.8480   26.5870  -19.5980 C.ar   72  HIS72       0.0820
     94  ND1       24.9770   27.2840  -19.9760 N.ar   72  HIS72      -0.2267
     95  CD2       23.0520   27.4870  -18.9660 C.ar   72  HIS72       0.1154
     96  CE1       24.8550   28.5580  -19.6230 C.ar   72  HIS72       0.1986
     97  NE2       23.6960   28.7060  -19.0050 N.ar   72  HIS72      -0.2212
     98  N         20.3830   21.1350  -16.2420 N.3    75  CYS75      -0.1221
     99  CA        19.2810   21.9620  -15.8720 C.3    75  CYS75       0.1808
    100  C         18.1740   21.8000  -16.8850 C.2    75  CYS75       0.2601
    101  O         17.0700   21.3030  -16.5610 O.2    75  CYS75      -0.2717
    102  CB        19.7010   23.4320  -15.8420 C.3    75  CYS75       0.0970
    103  SG        20.5370   23.9890  -14.3220 S.3    75  CYS75      -0.0800
    104  N         18.4870   22.2190  -18.1190 N.am   76  MET76      -0.1979
    105  CA        17.4940   22.2890  -19.1830 C.3    76  MET76       0.1605
    106  C         17.0960   20.9630  -19.7540 C.2    76  MET76       0.2287
    107  O         16.1060   20.8980  -20.4350 O.2    76  MET76      -0.2864
    108  CB        17.8870   23.2850  -20.2550 C.3    76  MET76       0.0413
    109  CG        17.3940   24.6560  -19.9280 C.3    76  MET76       0.0598
    110  SD        18.3540   26.0180  -20.6230 S.3    76  MET76      -0.1393
    111  CE        20.0140   25.6110  -20.1270 C.3    76  MET76       0.0692
    112  N         13.8360   20.2280  -17.7370 N.3    79  HIS79      -0.1241
    113  CA        12.8780   21.1650  -18.3060 C.3    79  HIS79       0.1621
    114  C         12.3090   20.6640  -19.6760 C.2    79  HIS79       0.2264
    115  O         11.0730   20.5100  -19.8640 O.2    79  HIS79      -0.2867
    116  CB        13.5540   22.5270  -18.4410 C.3    79  HIS79       0.0745
    117  CG        13.7540   23.2290  -17.1370 C.ar   79  HIS79       0.0817
    118  ND1       14.1640   24.5470  -17.0460 N.ar   79  HIS79      -0.2268
    119  CD2       13.5560   22.8110  -15.8610 C.ar   79  HIS79       0.1154
    120  CE1       14.2350   24.8990  -15.7750 C.ar   79  HIS79       0.1986
    121  NE2       13.8530   23.8690  -15.0390 N.ar   79  HIS79      -0.2212
    122  N         11.6550   27.3360  -17.8040 N.3    90  PRO90      -0.2102
    123  CA        12.6030   28.1820  -18.5760 C.3    90  PRO90       0.1504
    124  C         13.4950   27.4230  -19.5560 C.2    90  PRO90       0.2576
    125  O         14.0400   26.3630  -19.2120 O.2    90  PRO90      -0.2718
    126  CB        13.4150   28.8860  -17.4870 C.3    90  PRO90       0.0282
    127  CG        12.4630   28.9830  -16.3570 C.3    90  PRO90       0.0208
    128  CD        11.7790   27.6150  -16.3640 C.3    90  PRO90       0.0893
    129  N         13.6510   27.9820  -20.7620 N.am   91  GLN91      -0.1966
    130  CA        14.0240   27.1560  -21.9010 C.3    91  GLN91       0.1733
    131  C         15.4320   27.2020  -22.4870 C.2    91  GLN91       0.2616
    132  O         15.9080   26.1520  -22.9390 O.2    91  GLN91      -0.2715
    133  CB        12.9230   27.1250  -22.9880 C.3    91  GLN91       0.0408
    134  CG        11.7020   26.2380  -22.6210 C.3    91  GLN91       0.0908
    135  CD        12.0730   24.7960  -22.1990 C.2    91  GLN91       0.2608
    136  OE1       13.0350   24.2170  -22.7070 O.2    91  GLN91      -0.2717
    137  NE2       11.2900   24.2150  -21.2760 N.am   91  GLN91      -0.0878
    138  N         16.0730   28.3720  -22.5040 N.am   92  ALA92      -0.1963
    139  CA        17.5030   28.4830  -22.8820 C.3    92  ALA92       0.1728
    140  C         17.9230   29.8940  -23.2930 C.2    92  ALA92       0.2616
    141  O         18.8780   30.4590  -22.7390 O.2    92  ALA92      -0.2715
    142  CB        17.9050   27.4850  -23.9530 C.3    92  ALA92       0.0334
    143  N         17.2150   30.4580  -24.2690 N.am   93  ALA93      -0.1963
    144  CA        17.4280   31.8470  -24.6350 C.3    93  ALA93       0.1728
    145  C         16.8390   32.7160  -23.5520 C.2    93  ALA93       0.2616
    146  O         17.0020   33.9410  -23.5970 O.2    93  ALA93      -0.2715
    147  CB        16.7790   32.1650  -25.9890 C.3    93  ALA93       0.0334
    148  N         16.1500   32.0800  -22.5950 N.am   94  GLU94      -0.1963
    149  CA        15.4780   32.7860  -21.5060 C.3    94  GLU94       0.1733
    150  C         16.4630   33.0100  -20.3660 C.2    94  GLU94       0.2616
    151  O         16.3740   32.3750  -19.3070 O.2    94  GLU94      -0.2715
    152  CB        14.2250   32.0410  -21.0410 C.3    94  GLU94       0.0429
    153  CG        13.2180   31.7830  -22.1540 C.3    94  GLU94       0.1163
    154  CD        11.9350   31.1090  -21.6720 C.2    94  GLU94       0.3649
    155  OE1       11.0880   31.8230  -21.0910 O.co2  94  GLU94      -0.2457
    156  OE2       11.7610   29.8760  -21.8870 O.co2  94  GLU94      -0.2457
    157  N         17.3940   33.9340  -20.6170 N.am   95  CYS95      -0.1968
    158  CA        18.5420   34.1930  -19.7710 C.3    95  CYS95       0.1712
    159  C         18.1450   34.6840  -18.3900 C.2    95  CYS95       0.2296
    160  O         18.7320   34.2350  -17.3910 O.2    95  CYS95      -0.2864
    161  CB        19.4920   35.2050  -20.4440 C.3    95  CYS95       0.0983
    162  SG        20.3520   34.5830  -21.9520 S.3    95  CYS95      -0.0798
    163  N         16.7330   32.3020  -15.3780 N.3    98  CYS98      -0.1221
    164  CA        17.7520   31.7660  -14.5070 C.3    98  CYS98       0.1808
    165  C         18.7590   32.8050  -13.9680 C.2    98  CYS98       0.2601
    166  O         18.9400   32.9220  -12.7530 O.2    98  CYS98      -0.2717
    167  CB        18.4030   30.5700  -15.1720 C.3    98  CYS98       0.0970
    168  SG        17.1720   29.2130  -15.4030 S.3    98  CYS98      -0.0800
    169  N         19.3790   33.5870  -14.8380 N.am   99  HIS99      -0.1975
    170  CA        20.2660   34.6560  -14.3710 C.3    99  HIS99       0.1656
    171  C         19.4730   35.8870  -13.9440 C.2    99  HIS99       0.2291
    172  O         19.3940   36.8690  -14.6720 O.2    99  HIS99      -0.2864
    173  CB        21.3010   34.9980  -15.4510 C.3    99  HIS99       0.0771
    174  CG        22.1510   33.8300  -15.8270 C.ar   99  HIS99       0.0820
    175  ND1       23.4160   33.6470  -15.3180 N.ar   99  HIS99      -0.2267
    176  CD2       21.8840   32.7430  -16.5930 C.ar   99  HIS99       0.1154
    177  CE1       23.9070   32.5100  -15.7810 C.ar   99  HIS99       0.1986
    178  NE2       22.9960   31.9400  -16.5540 N.ar   99  HIS99      -0.2212
@<TRIPOS>BOND
     1   147   144    1
     2   144   143    1
     3   144   145    1
     4   143   140   am
     5   142   139    1
     6   146   145    2
     7   145   148   am
     8   140   139    1
     9   140   141    2
    10   133   134    1
    11   133   130    1
    12   132   131    2
    13   139   138    1
    14   136   135    2
    15   134   135    1
    16   148   149    1
    17   138   131   am
    18   131   130    1
    19   135   137   am
    20   153   154    1
    21   153   152    1
    22   162   161    1
    23   130   129    1
    24   156   154   ar
    25   154   155   ar
    26   149   152    1
    27   149   150    1
    28    44    43   ar
    29   129   124   am
    30   110   111    1
    31   110   109    1
    32   157   150   am
    33   157   158    1
    34    45    43   ar
    35   161   158    1
    36   107   106    2
    37   150   151    2
    38   108   109    1
    39   108   105    1
    40    43    42    1
    41    94    96   ar
    42    94    93   ar
    43    92    93    1
    44    92    89    1
    45   115   114    2
    46   158   159    1
    47   106   105    1
    48   114   113    1
    49    96    97   ar
    50    93    95   ar
    51    53    52    2
    52   124   125    2
    53   124   123    1
    54    91    90    2
    55   105   104    1
    56    90    89    1
    57    54    52   am
    58    97    95   ar
    59    52    51    1
    60    42    41    1
    61    89    88    1
    62    41    38    1
    63   123   122    1
    64   123   126    1
    65   116   113    1
    66   116   117    1
    67   159   160    2
    68    74    73    2
    69   113   112    1
    70    73    72    1
    71    51    50    1
    72   104   100   am
    73    64    65    2
    74    64    63    1
    75    75    72    1
    76   122   128    1
    77    88    78   am
    78   126   127    1
    79    40    39    2
    80    67    68    1
    81    67    66    1
    82    38    39    1
    83    38    37    1
    84    72    71    1
    85    68    69    1
    86    69    70    1
    87   117   118   ar
    88   117   119   ar
    89    66    63    1
    90    39    46   am
    91   118   120   ar
    92   100   101    2
    93   100    99    1
    94    63    62    1
    95    50    47    1
    96   176   178   ar
    97   176   174   ar
    98    78    79    2
    99    78    77    1
   100   178   177   ar
   101    46    47    1
   102    76    77    1
   103   128   127    1
   104    47    48    1
   105    98    99    1
   106    37    31   am
   107    99   102    1
   108   119   121   ar
   109   102   103    1
   110   174   173    1
   111   174   175   ar
   112   177   175   ar
   113   120   121   ar
   114    77    80    1
   115   173   170    1
   116   168   167    1
   117   163   164    1
   118    32    31    2
   119    31    30    1
   120   167   164    1
   121    80    81    1
   122    48    49    2
   123   169   170    1
   124   169   165   am
   125   172   171    2
   126   164   165    1
   127   170   171    1
   128    30    29    1
   129    30    33    1
   130   165   166    2
   131    81    82   ar
   132    81    83   ar
   133    33    34    1
   134    28    25    1
   135    82    84   ar
   136    83    85   ar
   137    61    59    1
   138    27    26    2
   139    36    34    1
   140    34    35    1
   141    84    86   ar
   142    25    26    1
   143    25    24    1
   144    60    59    1
   145    85    86   ar
   146    59    56    1
   147    55    56    1
   148    56    57    1
   149    86    87    1
   150    24    19   am
   151    19    20    2
   152    19    18    1
   153     7     5    1
   154    57    58    2
   155     4     3    2
   156    21    22    1
   157    21    18    1
   158    21    23    1
   159     8     6    1
   160     5     6    1
   161     5     2    1
   162    17    18    1
   163    17    11   am
   164    11    12    2
   165    11    10    1
   166    10     9    1
   167    10    13    1
   168     3     9   am
   169     3     2    1
   170     2     1    1
   171    13    14    1
   172    14    15   ar
   173    14    16   ar
