@<TRIPOS>MOLECULE
tmp/1z1nA12.pdb
 199 196 0 0 0
SMALL
GASTEIGER

@<TRIPOS>ATOM
      1  N         24.7620    6.7980   -0.2230 N.3    50  LYS50      -0.1245
      2  CA        25.0410    8.2180    0.0080 C.3    50  LYS50       0.1561
      3  C         24.8520    9.1040   -1.2370 C.2    50  LYS50       0.2260
      4  O         25.4970    8.9160   -2.2570 O.2    50  LYS50      -0.2867
      5  CB        26.4330    8.4220    0.6240 C.3    50  LYS50       0.0271
      6  CG        26.9120    9.8740    0.5870 C.3    50  LYS50       0.0035
      7  CD        28.3510    9.9990    1.0210 C.3    50  LYS50       0.0206
      8  CE        28.4270   10.2280    2.5180 C.3    50  LYS50       0.1093
      9  NZ        29.8290   10.3480    2.9740 N.3    50  LYS50      -0.1314
     10  N         30.6020    9.7410   13.9610 N.3   142  CYS142     -0.1221
     11  CA        30.4950   11.1000   13.4170 C.3   142  CYS142      0.1808
     12  C         31.7500   11.9470   13.5160 C.2   142  CYS142      0.2601
     13  O         31.9980   12.8060   12.6700 O.2   142  CYS142     -0.2717
     14  CB        29.3910   11.8400   14.1060 C.3   142  CYS142      0.0970
     15  SG        27.7090   11.2290   13.8300 S.3   142  CYS142     -0.0800
     16  N         32.5230   11.7160   14.5570 N.am  143  HIS143     -0.1961
     17  CA        33.7190   12.4940   14.8150 C.3   143  HIS143      0.1787
     18  C         34.9340   11.8490   14.2170 C.2   143  HIS143      0.2620
     19  O         35.1230   10.6480   14.3570 O.2   143  HIS143     -0.2715
     20  CB        33.9190   12.7010   16.3190 C.3   143  HIS143      0.0785
     21  CG        32.9920   13.7260   16.8940 C.ar  143  HIS143      0.0821
     22  ND1       33.2320   15.0850   16.8170 N.ar  143  HIS143     -0.2267
     23  CD2       31.8100   13.5850   17.5290 C.ar  143  HIS143      0.1154
     24  CE1       32.2260   15.7320   17.3740 C.ar  143  HIS143      0.1986
     25  NE2       31.3620   14.8420   17.8310 N.ar  143  HIS143     -0.2212
     26  N         35.7640   12.6560   13.5570 N.am  144  HIS144     -0.1959
     27  CA        36.9990   12.1190   12.9820 C.3   144  HIS144      0.1787
     28  C         38.1320   13.1010   12.8220 C.2   144  HIS144      0.2621
     29  O         37.9720   14.3080   13.0110 O.2   144  HIS144     -0.2715
     30  CB        36.7280   11.4720   11.6200 C.3   144  HIS144      0.0785
     31  CG        36.1350   12.4030   10.6240 C.ar  144  HIS144      0.0821
     32  ND1       35.0610   12.0550    9.8360 N.ar  144  HIS144     -0.2267
     33  CD2       36.4430   13.6760   10.3020 C.ar  144  HIS144      0.1154
     34  CE1       34.7310   13.0730    9.0690 C.ar  144  HIS144      0.1986
     35  NE2       35.5650   14.0650    9.3230 N.ar  144  HIS144     -0.2212
     36  N         39.2830   12.5200   12.5030 N.am  145  THR145     -0.1937
     37  CA        40.5130   13.2110   12.1780 C.3   145  THR145      0.2028
     38  C         41.2100   12.4280   11.0290 C.2   145  THR145      0.2642
     39  O         41.0170   11.2020   10.8990 O.2   145  THR145     -0.2714
     40  CB        41.4210   13.3580   13.4320 C.3   145  THR145      0.1808
     41  OG1       42.3290   14.4540   13.2590 O.3   145  THR145     -0.2208
     42  CG2       42.2090   12.0590   13.7590 C.3   145  THR145      0.0379
     43  N         41.9820   13.1390   10.1960 N.am  146  TYR146     -0.1973
     44  CA        42.7720   12.5160    9.1340 C.3   146  TYR146      0.1639
     45  C         44.1110   12.0060    9.6470 C.2   146  TYR146      0.2290
     46  O         44.9150   12.7910   10.1610 O.2   146  TYR146     -0.2864
     47  CB        43.0210   13.4990    7.9820 C.3   146  TYR146      0.0560
     48  CG        43.8410   12.9040    6.8490 C.ar  146  TYR146     -0.0198
     49  CD1       43.2330   12.1240    5.8540 C.ar  146  TYR146     -0.0009
     50  CD2       45.2310   13.0990    6.7840 C.ar  146  TYR146     -0.0009
     51  CE1       43.9810   11.5630    4.8180 C.ar  146  TYR146      0.0417
     52  CE2       45.9960   12.5390    5.7480 C.ar  146  TYR146      0.0417
     53  CZ        45.3600   11.7720    4.7680 C.ar  146  TYR146      0.1957
     54  OH        46.0990   11.2190    3.7380 O.3   146  TYR146     -0.2866
     55  N         40.6410    8.5770    7.3080 N.3   153  LEU153     -0.1245
     56  CA        40.0180    9.2670    8.4260 C.3   153  LEU153      0.1561
     57  C         39.7280    8.2770    9.5390 C.2   153  LEU153      0.2260
     58  O         39.1420    7.2220    9.2960 O.2   153  LEU153     -0.2867
     59  CB        38.7250    9.9630    7.9640 C.3   153  LEU153      0.0270
     60  CG        38.8040   11.3060    7.2030 C.3   153  LEU153      0.0019
     61  CD1       37.4760   11.7090    6.5720 C.3   153  LEU153      0.0001
     62  CD2       39.2640   12.4060    8.1050 C.3   153  LEU153      0.0001
     63  N         39.1740   13.3320   21.4180 N.3   159  GLU159     -0.1245
     64  CA        39.4690   14.5530   20.6690 C.3   159  GLU159      0.1567
     65  C         38.2490   15.2110   20.0350 C.2   159  GLU159      0.2260
     66  O         38.3890   16.0490   19.1450 O.2   159  GLU159     -0.2867
     67  CB        40.6110   14.3470   19.6930 C.3   159  GLU159      0.0388
     68  CG        41.9440   14.3710   20.4490 C.3   159  GLU159      0.1160
     69  CD        43.1180   13.8660   19.6240 C.2   159  GLU159      0.3649
     70  OE1       43.0460   13.9190   18.3670 O.co2 159  GLU159     -0.2457
     71  OE2       44.1250   13.4140   20.2330 O.co2 159  GLU159     -0.2457
     72  N         34.7530   17.3920   19.3530 N.3   161  GLY161     -0.1210
     73  CA        34.6370   18.8320   19.3980 C.3   161  GLY161      0.1956
     74  C         33.8600   19.1720   18.1520 C.2   161  GLY161      0.2613
     75  O         33.5280   18.2930   17.3380 O.2   161  GLY161     -0.2717
     76  N         33.6000   20.4550   18.0220 N.am  162  SER162     -0.1938
     77  CA        32.9270   21.0440   16.9580 C.3   162  SER162      0.2055
     78  C         33.5820   20.7230   15.6200 C.2   162  SER162      0.2643
     79  O         34.8020   20.8710   15.4850 O.2   162  SER162     -0.2714
     80  CB        32.9540   22.5590   17.1800 C.3   162  SER162      0.2130
     81  OG        32.4050   23.1890   16.0530 O.3   162  SER162     -0.2179
     82  N         32.7480   20.3040   14.6590 N.am  163  CYS163     -0.1967
     83  CA        33.0930   20.1820   13.2400 C.3   163  CYS163      0.1712
     84  C         33.7690   21.3930   12.6720 C.2   163  CYS163      0.2296
     85  O         34.6510   21.2690   11.8520 O.2   163  CYS163     -0.2864
     86  CB        31.8160   19.9280   12.4010 C.3   163  CYS163      0.0983
     87  SG        30.8560   18.6160   13.0870 S.3   163  CYS163     -0.0798
     88  N         35.9760   23.1350   13.7390 N.3   165  TYR165     -0.1227
     89  CA        37.3860   23.3740   14.0510 C.3   165  TYR165      0.1736
     90  C         38.2590   22.9540   12.8620 C.2   165  TYR165      0.2596
     91  O         39.4280   23.3240   12.8050 O.2   165  TYR165     -0.2718
     92  CB        37.8380   22.6670   15.3150 C.3   165  TYR165      0.0548
     93  CG        37.2360   23.1420   16.6300 C.ar  165  TYR165     -0.0200
     94  CD1       36.8630   24.4790   16.8400 C.ar  165  TYR165     -0.0009
     95  CD2       37.1140   22.2590   17.6980 C.ar  165  TYR165     -0.0009
     96  CE1       36.3340   24.8950   18.0810 C.ar  165  TYR165      0.0417
     97  CE2       36.5960   22.6650   18.9110 C.ar  165  TYR165      0.0417
     98  CZ        36.2130   23.9830   19.1090 C.ar  165  TYR165      0.1957
     99  OH        35.6920   24.3700   20.3340 O.3   165  TYR165     -0.2866
    100  N         37.6780   22.2050   11.9210 N.am  166  CYS166     -0.1956
    101  CA        38.3580   21.8340   10.6670 C.3   166  CYS166      0.1843
    102  C         37.5470   22.1940    9.4190 C.2   166  CYS166      0.2625
    103  O         38.1280   22.5400    8.3980 O.2   166  CYS166     -0.2714
    104  CB        38.6810   20.3580   10.6320 C.3   166  CYS166      0.0997
    105  SG        39.6240   19.7990   12.0280 S.3   166  CYS166     -0.0797
    106  N         36.2200   22.1190    9.5160 N.am  167  HIS167     -0.1973
    107  CA        35.2980   22.4620    8.4300 C.3   167  HIS167      0.1656
    108  C         34.8500   23.9380    8.5010 C.2   167  HIS167      0.2291
    109  O         33.9190   24.2990    9.2130 O.2   167  HIS167     -0.2864
    110  CB        34.1130   21.4920    8.4080 C.3   167  HIS167      0.0771
    111  CG        34.5010   20.0680    8.1440 C.ar  167  HIS167      0.0820
    112  ND1       34.8920   19.6200    6.9000 N.ar  167  HIS167     -0.2267
    113  CD2       34.5650   18.9900    8.9620 C.ar  167  HIS167      0.1154
    114  CE1       35.1750   18.3310    6.9580 C.ar  167  HIS167      0.1986
    115  NE2       34.9740   17.9200    8.1980 N.ar  167  HIS167     -0.2212
    116  N         43.4170   20.6320    2.6250 N.3   174  SER174     -0.1203
    117  CA        43.4970   19.2580    3.1510 C.3   174  SER174      0.2005
    118  C         44.9330   18.7760    3.3700 C.2   174  SER174      0.2461
    119  O         45.8760   19.4470    2.9670 O.2   174  SER174     -0.2732
    120  CB        42.8010   18.2890    2.1990 C.3   174  SER174      0.2103
    121  OG        43.0430   16.9370    2.5640 O.3   174  SER174     -0.2182
    122  N         45.1120   17.6390    4.0680 N.am  175  PRO175     -0.2717
    123  CA        46.2870   16.8110    3.7750 C.3   175  PRO175      0.1535
    124  C         46.0490   15.4770    2.9890 C.2   175  PRO175      0.2598
    125  O         45.6850   14.5030    3.6360 O.2   175  PRO175     -0.2715
    126  CB        46.8110   16.4990    5.1840 C.3   175  PRO175      0.0310
    127  CG        45.5450   16.6580    6.1300 C.3   175  PRO175      0.0237
    128  CD        44.4000   17.1590    5.2690 C.3   175  PRO175      0.0939
    129  N         46.2140   15.3650    1.6490 N.am  176  VAL176     -0.1978
    130  CA        46.2280   16.4230    0.5890 C.3   176  VAL176      0.1596
    131  C         45.9540   15.7990   -0.7960 C.2   176  VAL176      0.2287
    132  O         46.5420   14.7650   -1.1690 O.2   176  VAL176     -0.2864
    133  CB        47.5410   17.2980    0.5170 C.3   176  VAL176      0.0276
    134  CG1       48.7420   16.5230   -0.0510 C.3   176  VAL176      0.0022
    135  CG2       47.2870   18.5650   -0.3010 C.3   176  VAL176      0.0022
    136  N         43.8220   18.8430   -2.1590 N.3   178  ARG178     -0.1231
    137  CA        42.4100   19.1040   -1.9460 C.3   178  ARG178      0.1694
    138  C         42.1270   20.0180   -0.7450 C.2   178  ARG178      0.2592
    139  O         43.0440   20.4090   -0.0270 O.2   178  ARG178     -0.2718
    140  CB        41.6450   17.7690   -1.8540 C.3   178  ARG178      0.0321
    141  CG        42.5100   16.5740   -1.4980 C.3   178  ARG178      0.0489
    142  CD        42.1380   15.3730   -2.3320 C.3   178  ARG178      0.2205
    143  NE        41.1540   14.5090   -1.6910 N.pl3 178  ARG178     -0.0865
    144  CZ        39.8460   14.5230   -1.9510 C.cat 178  ARG178      0.5346
    145  NH1       39.3350   15.3680   -2.8450 N.pl3 178  ARG178      0.1354
    146  NH2       39.0370   13.6870   -1.3120 N.pl3 178  ARG178      0.1354
    147  N         40.8520   20.3660   -0.5670 N.am  179  VAL179     -0.1966
    148  CA        40.3780   21.2230    0.5260 C.3   179  VAL179      0.1727
    149  C         39.6790   20.3530    1.5960 C.2   179  VAL179      0.2616
    150  O         39.1490   19.2770    1.2910 O.2   179  VAL179     -0.2715
    151  CB        39.3610   22.3070    0.0170 C.3   179  VAL179      0.0290
    152  CG1       40.0650   23.4580   -0.6550 C.3   179  VAL179      0.0023
    153  CG2       38.3680   21.7000   -0.9420 C.3   179  VAL179      0.0023
    154  N         39.6780   20.8140    2.8470 N.am  180  VAL180     -0.1964
    155  CA        38.7360   20.2730    3.8290 C.3   180  VAL180      0.1712
    156  C         37.3980   20.9760    3.5300 C.2   180  VAL180      0.2458
    157  O         37.3110   22.2180    3.5700 O.2   180  VAL180     -0.2730
    158  CB        39.1590   20.5550    5.2880 C.3   180  VAL180      0.0289
    159  CG1       38.1320   19.9540    6.2440 C.3   180  VAL180      0.0023
    160  CG2       40.5450   20.0200    5.5750 C.3   180  VAL180      0.0023
    161  N         36.3650   20.2050    3.1760 N.am  181  PRO181     -0.2727
    162  CA        35.1070   20.8310    2.7900 C.3   181  PRO181      0.1402
    163  C         34.5540   21.8090    3.8380 C.2   181  PRO181      0.2269
    164  O         34.7710   21.6440    5.0440 O.2   181  PRO181     -0.2865
    165  CB        34.1580   19.6510    2.6110 C.3   181  PRO181      0.0296
    166  CG        34.8500   18.4700    3.1660 C.3   181  PRO181      0.0237
    167  CD        36.3040   18.7420    3.1050 C.3   181  PRO181      0.0939
    168  N         30.2380   20.0210    4.4850 N.3   186  ALA186     -0.1231
    169  CA        30.3670   18.8850    5.4130 C.3   186  ALA186      0.1694
    170  C         29.0580   18.5990    6.1340 C.2   186  ALA186      0.2592
    171  O         28.7150   17.4480    6.3520 O.2   186  ALA186     -0.2718
    172  CB        31.4880   19.1180    6.4170 C.3   186  ALA186      0.0304
    173  N         28.3130   19.6450    6.4800 N.am  187  SER187     -0.1952
    174  CA        27.0590   19.5070    7.2370 C.3   187  SER187      0.1924
    175  C         25.9460   18.8730    6.4270 C.2   187  SER187      0.2314
    176  O         25.2750   17.8910    6.8550 O.2   187  SER187     -0.2863
    177  CB        26.6110   20.8840    7.7470 C.3   187  SER187      0.2116
    178  OG        27.4600   21.3010    8.8330 O.3   187  SER187     -0.2180
    179  N         26.3760   17.0380    3.6760 N.3   189  GLU189     -0.1231
    180  CA        26.6850   15.6800    3.2310 C.3   189  GLU189      0.1699
    181  C         26.3510   14.7910    4.4100 C.2   189  GLU189      0.2593
    182  O         25.8060   13.7050    4.2760 O.2   189  GLU189     -0.2718
    183  CB        28.1640   15.5790    2.8380 C.3   189  GLU189      0.0402
    184  CG        28.7280   14.1600    2.8990 C.3   189  GLU189      0.1161
    185  CD        30.0190   13.9900    2.1030 C.2   189  GLU189      0.3649
    186  OE1       30.5590   15.0140    1.6350 O.co2 189  GLU189     -0.2457
    187  OE2       30.4950   12.8270    1.9520 O.co2 189  GLU189     -0.2457
    188  N         26.6770   15.2870    5.6000 N.am  190  SER190     -0.1938
    189  CA        26.7010   14.4660    6.8060 C.3   190  SER190      0.2055
    190  C         25.3270   14.2950    7.3660 C.2   190  SER190      0.2643
    191  O         24.8170   13.1890    7.5210 O.2   190  SER190     -0.2714
    192  CB        27.5840   15.1750    7.8440 C.3   190  SER190      0.2130
    193  OG        28.3120   14.1970    8.5470 O.3   190  SER190     -0.2179
    194  N         24.7480   15.4280    7.7100 N.am  191  CYS191     -0.1967
    195  CA        23.4930   15.4840    8.3920 C.3   191  CYS191      0.1712
    196  C         22.3860   14.9290    7.5310 C.2   191  CYS191      0.2296
    197  O         21.5630   14.1780    8.0040 O.2   191  CYS191     -0.2864
    198  CB        23.1400   16.9530    8.7300 C.3   191  CYS191      0.0983
    199  SG        24.4650   17.9840    9.4900 S.3   191  CYS191     -0.0798
@<TRIPOS>BOND
     1   145   144    1
     2   142   143    1
     3   142   141    1
     4     4     3    2
     5   136   137    1
     6   144   143    2
     7   144   146    1
     8   137   140    1
     9   137   138    1
    10   140   141    1
    11     3     2    1
    12   132   131    2
    13   153   151    1
    14   131   130    1
    15   138   147   am
    16   138   139    2
    17   152   151    1
    18   147   148    1
    19   135   133    1
    20     1     2    1
    21   134   133    1
    22     2     5    1
    23   151   148    1
    24   133   130    1
    25   148   149    1
    26     6     5    1
    27     6     7    1
    28   130   129    1
    29     7     8    1
    30   150   149    2
    31   149   154   am
    32   186   185   ar
    33   129   124   am
    34   187   185   ar
    35   185   184    1
    36   120   121    1
    37   120   117    1
    38     8     9    1
    39   165   162    1
    40   165   166    1
    41   116   117    1
    42   162   161    1
    43   162   163    1
    44   183   184    1
    45   183   180    1
    46   154   155    1
    47   119   118    2
    48   124   125    2
    49   124   123    1
    50   167   166    1
    51   167   161    1
    52   117   118    1
    53   161   156   am
    54   180   179    1
    55   180   181    1
    56   118   122   am
    57   156   157    2
    58   156   155    1
    59    54    53    1
    60   123   122    1
    61   123   126    1
    62   155   158    1
    63   163   164    2
    64   122   128    1
    65   182   181    2
    66   181   188   am
    67   168   169    1
    68    53    51   ar
    69    53    52   ar
    70    51    49   ar
    71   126   127    1
    72   128   127    1
    73   158   160    1
    74   158   159    1
    75   169   170    1
    76   169   172    1
    77   188   189    1
    78    52    50   ar
    79    49    48   ar
    80   170   171    2
    81   170   173   am
    82   175   176    2
    83   175   174    1
    84   173   174    1
    85    61    60    1
    86    50    48   ar
    87   189   190    1
    88   189   192    1
    89    48    47    1
    90   112   114   ar
    91   112   111   ar
    92   114   115   ar
    93    60    59    1
    94    60    62    1
    95   174   177    1
    96    55    56    1
    97   190   191    2
    98   190   194   am
    99   196   197    2
   100   196   195    1
   101   194   195    1
   102   177   178    1
   103   192   193    1
   104    59    56    1
   105    47    44    1
   106   111   110    1
   107   111   113   ar
   108   115   113   ar
   109   195   198    1
   110   103   102    2
   111   110   107    1
   112    56    57    1
   113   107   108    1
   114   107   106    1
   115   108   109    2
   116   198   199    1
   117    34    35   ar
   118    34    32   ar
   119    44    45    1
   120    44    43    1
   121    58    57    2
   122    35    33   ar
   123   102   106   am
   124   102   101    1
   125    45    46    2
   126    32    31   ar
   127    43    38   am
   128    33    31   ar
   129    31    30    1
   130   104   101    1
   131   104   105    1
   132   101   100    1
   133    39    38    2
   134    38    37    1
   135    30    27    1
   136    85    84    2
   137   100    90   am
   138    37    36    1
   139    37    40    1
   140    86    87    1
   141    86    83    1
   142    36    28   am
   143    13    12    2
   144    84    83    1
   145    91    90    2
   146    28    27    1
   147    28    29    2
   148    90    89    1
   149    27    26    1
   150    83    82    1
   151    41    40    1
   152    11    12    1
   153    11    10    1
   154    11    14    1
   155    40    42    1
   156    12    16   am
   157    26    18   am
   158    88    89    1
   159    15    14    1
   160    89    92    1
   161    18    19    2
   162    18    17    1
   163    16    17    1
   164    82    78   am
   165    17    20    1
   166    92    93    1
   167    79    78    2
   168    78    77    1
   169    81    80    1
   170    20    21    1
   171    93    94   ar
   172    93    95   ar
   173    22    21   ar
   174    22    24   ar
   175    94    96   ar
   176    21    23   ar
   177    77    80    1
   178    77    76    1
   179    75    74    2
   180    24    25   ar
   181    23    25   ar
   182    95    97   ar
   183    76    74   am
   184    96    98   ar
   185    74    73    1
   186    70    69   ar
   187    97    98   ar
   188    98    99    1
   189    66    65    2
   190    72    73    1
   191    69    71   ar
   192    69    68    1
   193    67    68    1
   194    67    64    1
   195    65    64    1
   196    64    63    1
