@<TRIPOS>MOLECULE
tmp/1z1nA13.pdb
 209 201 0 0 0
SMALL
GASTEIGER

@<TRIPOS>ATOM
      1  N         21.0810   26.0500   11.9900 N.3   113  PRO113     -0.2102
      2  CA        20.8900   24.7440   12.5860 C.3   113  PRO113      0.1504
      3  C         22.1710   24.4060   13.3540 C.2   113  PRO113      0.2576
      4  O         23.2510   24.6580   12.8590 O.2   113  PRO113     -0.2718
      5  CB        20.7070   23.8260   11.3720 C.3   113  PRO113      0.0282
      6  CG        21.1680   24.5880   10.2180 C.3   113  PRO113      0.0208
      7  CD        20.9980   26.0060   10.5170 C.3   113  PRO113      0.0893
      8  N         22.0330   23.9010   14.5760 N.am  114  SER114     -0.1938
      9  CA        23.1720   23.3940   15.3460 C.3   114  SER114      0.2055
     10  C         22.7150   22.1800   16.1290 C.2   114  SER114      0.2642
     11  O         21.5060   21.9780   16.2610 O.2   114  SER114     -0.2714
     12  CB        23.6440   24.4580   16.3080 C.3   114  SER114      0.2130
     13  OG        22.5380   24.9430   17.0510 O.3   114  SER114     -0.2179
     14  N         23.6470   21.3590   16.6160 N.am  115  LEU115     -0.1977
     15  CA        23.2990   20.3830   17.6490 C.3   115  LEU115      0.1596
     16  C         23.7390   20.9620   18.9650 C.2   115  LEU115      0.2287
     17  O         24.9630   20.9000   19.3100 O.2   115  LEU115     -0.2864
     18  CB        23.9850   19.0360   17.4330 C.3   115  LEU115      0.0297
     19  CG        23.9400   18.3470   16.0810 C.3   115  LEU115      0.0022
     20  CD1       24.4880   16.9200   16.2700 C.3   115  LEU115      0.0001
     21  CD2       22.5210   18.3230   15.5940 C.3   115  LEU115      0.0001
     22  N         20.0820   18.4910   21.9040 N.3   119  LEU119     -0.1245
     23  CA        19.9520   17.7620   20.6440 C.3   119  LEU119      0.1561
     24  C         21.1400   16.8440   20.3560 C.2   119  LEU119      0.2260
     25  O         20.9950   15.6820   19.9250 O.2   119  LEU119     -0.2867
     26  CB        19.6840   18.7200   19.4990 C.3   119  LEU119      0.0270
     27  CG        19.1820   18.1270   18.1740 C.3   119  LEU119      0.0019
     28  CD1       17.7760   17.5000   18.2640 C.3   119  LEU119      0.0001
     29  CD2       19.0870   19.2820   17.2220 C.3   119  LEU119      0.0001
     30  N         20.5550   13.7160   22.1380 N.3   122  ARG122     -0.1231
     31  CA        19.5560   12.8360   21.4840 C.3   122  ARG122      0.1694
     32  C         20.2200   11.9910   20.3690 C.2   122  ARG122      0.2592
     33  O         19.8440   10.8400   20.1270 O.2   122  ARG122     -0.2718
     34  CB        18.4060   13.6750   20.9140 C.3   122  ARG122      0.0321
     35  CG        17.4580   14.2430   21.9540 C.3   122  ARG122      0.0489
     36  CD        16.3530   15.0560   21.2780 C.3   122  ARG122      0.2205
     37  NE        15.6390   14.2020   20.3230 N.pl3 122  ARG122     -0.0865
     38  CZ        14.9630   14.5820   19.2260 C.cat 122  ARG122      0.5346
     39  NH1       14.8190   15.8550   18.8840 N.pl3 122  ARG122      0.1354
     40  NH2       14.4310   13.6340   18.4520 N.pl3 122  ARG122      0.1354
     41  N         21.2380   12.5730   19.7360 N.am  123  HIS123     -0.1976
     42  CA        21.9230   11.9290   18.6650 C.3   123  HIS123      0.1656
     43  C         22.8330   10.8640   19.2250 C.2   123  HIS123      0.2291
     44  O         23.0630    9.8590   18.5810 O.2   123  HIS123     -0.2864
     45  CB        22.7680   12.9280   17.8700 C.3   123  HIS123      0.0771
     46  CG        21.9970   13.7270   16.8660 C.ar  123  HIS123      0.0820
     47  ND1       21.1460   14.7430   17.2220 N.ar  123  HIS123     -0.2267
     48  CD2       21.9330   13.6460   15.5160 C.ar  123  HIS123      0.1154
     49  CE1       20.6190   15.2840   16.1340 C.ar  123  HIS123      0.1986
     50  NE2       21.0920   14.6410   15.0860 N.ar  123  HIS123     -0.2212
     51  N         20.3960    7.9190   20.1300 N.3   126  ALA126     -0.1231
     52  CA        19.9540    7.2940   18.8530 C.3   126  ALA126      0.1694
     53  C         21.0330    6.5020   18.1190 C.2   126  ALA126      0.2591
     54  O         20.7860    5.3760   17.6900 O.2   126  ALA126     -0.2718
     55  CB        19.3290    8.3230   17.8930 C.3   126  ALA126      0.0304
     56  N         22.2100    7.0900   17.9620 N.am  127  GLU127     -0.1979
     57  CA        23.3290    6.3710   17.3740 C.3   127  GLU127      0.1602
     58  C         23.6930    5.1650   18.2210 C.2   127  GLU127      0.2287
     59  O         23.8890    4.0970   17.6950 O.2   127  GLU127     -0.2864
     60  CB        24.5310    7.2850   17.1930 C.3   127  GLU127      0.0415
     61  CG        25.6150    6.7770   16.2600 C.3   127  GLU127      0.1163
     62  CD        25.0970    6.2210   14.9080 C.2   127  GLU127      0.3649
     63  OE1       24.1050    6.7230   14.3040 O.co2 127  GLU127     -0.2457
     64  OE2       25.7170    5.2530   14.4480 O.co2 127  GLU127     -0.2457
     65  N         21.7420    3.5350   20.2210 N.3   129  LYS129     -0.1231
     66  CA        20.6080    2.6300   20.1340 C.3   129  LYS129      0.1693
     67  C         20.6490    1.8790   18.8070 C.2   129  LYS129      0.2591
     68  O         20.2720    0.6980   18.7400 O.2   129  LYS129     -0.2718
     69  CB        19.3070    3.4070   20.2980 C.3   129  LYS129      0.0285
     70  CG        18.0110    2.6900   19.9160 C.3   129  LYS129      0.0035
     71  CD        16.8560    3.6860   20.1090 C.3   129  LYS129      0.0206
     72  CE        15.5990    3.3070   19.3480 C.3   129  LYS129      0.1093
     73  NZ        14.6640    2.5070   20.1730 N.3   129  LYS129     -0.1314
     74  N         21.1420    2.5490   17.7690 N.am  130  ARG130     -0.1980
     75  CA        21.2780    1.9330   16.4580 C.3   130  ARG130      0.1597
     76  C         22.4060    0.8770   16.4140 C.2   130  ARG130      0.2287
     77  O         22.1520   -0.2940   16.1390 O.2   130  ARG130     -0.2864
     78  CB        21.4940    3.0170   15.4180 C.3   130  ARG130      0.0334
     79  CG        20.8800    2.7330   14.0650 C.3   130  ARG130      0.0492
     80  CD        21.7190    3.4040   13.0200 C.3   130  ARG130      0.2205
     81  NE        23.0650    2.8660   13.0940 N.pl3 130  ARG130     -0.0865
     82  CZ        24.1440    3.4190   12.5590 C.cat 130  ARG130      0.5346
     83  NH1       24.0520    4.5700   11.8920 N.pl3 130  ARG130      0.1354
     84  NH2       25.3210    2.8080   12.6990 N.pl3 130  ARG130      0.1354
     85  N         30.9950    7.2070   15.1560 N.3   141  ALA141     -0.1231
     86  CA        30.0150    7.3610   14.0760 C.3   141  ALA141      0.1694
     87  C         30.1040    8.6810   13.3110 C.2   141  ALA141      0.2592
     88  O         29.7140    8.7420   12.1370 O.2   141  ALA141     -0.2718
     89  CB        28.6200    7.1750   14.5930 C.3   141  ALA141      0.0304
     90  N         30.6020    9.7410   13.9610 N.am  142  CYS142     -0.1970
     91  CA        30.4950   11.1000   13.4170 C.3   142  CYS142      0.1712
     92  C         31.7500   11.9470   13.5160 C.2   142  CYS142      0.2296
     93  O         31.9980   12.8060   12.6700 O.2   142  CYS142     -0.2864
     94  CB        29.3910   11.8400   14.1060 C.3   142  CYS142      0.0983
     95  SG        27.7090   11.2290   13.8300 S.3   142  CYS142     -0.0798
     96  N         32.7480   20.3040   14.6590 N.3   163  CYS163     -0.1235
     97  CA        33.0930   20.1820   13.2400 C.3   163  CYS163      0.1677
     98  C         33.7690   21.3930   12.6720 C.2   163  CYS163      0.2270
     99  O         34.6510   21.2690   11.8520 O.2   163  CYS163     -0.2867
    100  CB        31.8160   19.9280   12.4010 C.3   163  CYS163      0.0956
    101  SG        30.8560   18.6160   13.0870 S.3   163  CYS163     -0.0801
    102  N         28.3130   19.6450    6.4800 N.3   187  SER187     -0.1217
    103  CA        27.0590   19.5070    7.2370 C.3   187  SER187      0.1889
    104  C         25.9460   18.8730    6.4270 C.2   187  SER187      0.2288
    105  O         25.2750   17.8910    6.8550 O.2   187  SER187     -0.2866
    106  CB        26.6110   20.8840    7.7470 C.3   187  SER187      0.2089
    107  OG        27.4600   21.3010    8.8330 O.3   187  SER187     -0.2183
    108  N         26.6770   15.2870    5.6000 N.3   190  SER190     -0.1202
    109  CA        26.7010   14.4660    6.8060 C.3   190  SER190      0.2020
    110  C         25.3270   14.2950    7.3660 C.2   190  SER190      0.2619
    111  O         24.8170   13.1890    7.5210 O.2   190  SER190     -0.2717
    112  CB        27.5840   15.1750    7.8440 C.3   190  SER190      0.2103
    113  OG        28.3120   14.1970    8.5470 O.3   190  SER190     -0.2182
    114  N         24.7480   15.4280    7.7100 N.am  191  CYS191     -0.1969
    115  CA        23.4930   15.4840    8.3920 C.3   191  CYS191      0.1712
    116  C         22.3860   14.9290    7.5310 C.2   191  CYS191      0.2296
    117  O         21.5630   14.1780    8.0040 O.2   191  CYS191     -0.2864
    118  CB        23.1400   16.9530    8.7300 C.3   191  CYS191      0.0983
    119  SG        24.4650   17.9840    9.4900 S.3   191  CYS191     -0.0798
    120  N         22.5210   11.1360    6.6100 N.3   194  CYS194     -0.1221
    121  CA        22.1100   10.2710    7.6960 C.3   194  CYS194      0.1808
    122  C         20.6150   10.3500    7.9290 C.2   194  CYS194      0.2601
    123  O         19.9620    9.3210    8.1670 O.2   194  CYS194     -0.2717
    124  CB        22.8630   10.5690    8.9840 C.3   194  CYS194      0.0970
    125  SG        22.5260    9.3460   10.3120 S.3   194  CYS194     -0.0800
    126  N         20.0540   11.5580    7.8580 N.am  195  HIS195     -0.1975
    127  CA        18.6210   11.6980    8.0440 C.3   195  HIS195      0.1656
    128  C         17.8700   10.9380    6.9220 C.2   195  HIS195      0.2291
    129  O         16.8090   10.3990    7.1460 O.2   195  HIS195     -0.2864
    130  CB        18.2090   13.1620    8.0090 C.3   195  HIS195      0.0771
    131  CG        18.6150   13.9780    9.2120 C.ar  195  HIS195      0.0820
    132  ND1       18.5580   15.3600    9.2050 N.ar  195  HIS195     -0.2267
    133  CD2       19.0810   13.6320   10.4390 C.ar  195  HIS195      0.1154
    134  CE1       18.9580   15.8300   10.3750 C.ar  195  HIS195      0.1986
    135  NE2       19.2790   14.8030   11.1430 N.ar  195  HIS195     -0.2212
    136  N         18.0490    7.0910    7.4140 N.3   198  THR198     -0.1218
    137  CA        17.2640    6.6330    8.5700 C.3   198  THR198      0.1862
    138  C         15.7550    6.7230    8.3000 C.2   198  THR198      0.2287
    139  O         14.9830    5.9400    8.8570 O.2   198  THR198     -0.2866
    140  CB        17.6450    7.3450    9.9100 C.3   198  THR198      0.1770
    141  OG1       17.8160    8.7470    9.6740 O.3   198  THR198     -0.2211
    142  CG2       18.9370    6.7840   10.4690 C.3   198  THR198      0.0375
    143  N         13.2690    4.2290   10.7420 N.3   203  THR203     -0.1203
    144  CA        13.4620    4.6590   12.1530 C.3   203  THR203      0.1994
    145  C         13.0470    6.1520   12.3220 C.2   203  THR203      0.2618
    146  O         12.7780    6.8510   11.3280 O.2   203  THR203     -0.2717
    147  CB        14.9650    4.4840   12.6120 C.3   203  THR203      0.1784
    148  OG1       15.5410    3.2760   12.0740 O.3   203  THR203     -0.2211
    149  CG2       15.1090    4.5110   14.1540 C.3   203  THR203      0.0376
    150  N         12.9800    6.6360   13.5690 N.am  204  GLU204     -0.1965
    151  CA        12.8070    8.0920   13.8380 C.3   204  GLU204      0.1733
    152  C         14.0500    8.8610   13.3910 C.2   204  GLU204      0.2617
    153  O         15.1770    8.4200   13.6260 O.2   204  GLU204     -0.2715
    154  CB        12.5240    8.3800   15.3200 C.3   204  GLU204      0.0429
    155  CG        11.6880    9.6320   15.5350 C.3   204  GLU204      0.1163
    156  CD        12.0520   10.3980   16.8010 C.2   204  GLU204      0.3649
    157  OE1       11.9750    9.8210   17.9320 O.co2 204  GLU204     -0.2457
    158  OE2       12.4080   11.5940   16.6480 O.co2 204  GLU204     -0.2457
    159  N         13.8240    9.9990   12.7450 N.am  205  SER205     -0.1936
    160  CA        14.8610   10.7200   12.0350 C.3   205  SER205      0.2055
    161  C         14.7630   12.2520   12.1520 C.2   205  SER205      0.2644
    162  O         13.8940   12.7850   12.8420 O.2   205  SER205     -0.2714
    163  CB        14.8020   10.3350   10.5730 C.3   205  SER205      0.2130
    164  OG        16.0890   10.3100   10.0050 O.3   205  SER205     -0.2179
    165  N         15.6560   12.9620   11.4670 N.am  206  GLY206     -0.1940
    166  CA        15.6360   14.4160   11.4830 C.3   206  GLY206      0.1998
    167  C         15.3490   14.9340   10.0930 C.2   206  GLY206      0.2480
    168  O         15.1900   14.1250    9.1720 O.2   206  GLY206     -0.2729
    169  N         15.3030   16.2880    9.9240 N.am  207  PRO207     -0.2726
    170  CA        14.7940   16.8860    8.6870 C.3   207  PRO207      0.1402
    171  C         15.7390   16.7310    7.4890 C.2   207  PRO207      0.2269
    172  O         16.9810   16.6770    7.6530 O.2   207  PRO207     -0.2865
    173  CB        14.5960   18.3690    9.0470 C.3   207  PRO207      0.0296
    174  CG        15.0030   18.5410   10.4730 C.3   207  PRO207      0.0237
    175  CD        15.7470   17.3100   10.8890 C.3   207  PRO207      0.0939
    176  N         15.5700   22.6050    8.7140 N.3   213  CYS213     -0.1235
    177  CA        16.7670   22.9310    9.4720 C.3   213  CYS213      0.1677
    178  C         17.0020   24.4270    9.6240 C.2   213  CYS213      0.2270
    179  O         17.6880   24.8280   10.5390 O.2   213  CYS213     -0.2867
    180  CB        18.0020   22.2640    8.8790 C.3   213  CYS213      0.0956
    181  SG        18.0570   20.4660    9.1430 S.3   213  CYS213     -0.0801
    182  N         10.2200   23.7060   16.9510 N.3   221  ALA221     -0.1231
    183  CA         9.4490   22.4790   17.1080 C.3   221  ALA221      0.1694
    184  C         10.3200   21.2820   17.4120 C.2   221  ALA221      0.2592
    185  O          9.8030   20.1880   17.6530 O.2   221  ALA221     -0.2718
    186  CB         8.6180   22.1960   15.8470 C.3   221  ALA221      0.0304
    187  N         11.6470   21.4560   17.3830 N.am  222  TRP222     -0.1962
    188  CA        12.5080   20.2800   17.5610 C.3   222  TRP222      0.1771
    189  C         12.2740   19.8120   18.9830 C.2   222  TRP222      0.2619
    190  O         12.2100   20.6300   19.8810 O.2   222  TRP222     -0.2715
    191  CB        13.9940   20.6030   17.3340 C.3   222  TRP222      0.0590
    192  CG        14.3340   20.9330   15.9010 C.ar  222  TRP222      0.0006
    193  CD1       13.5690   20.6750   14.7780 C.ar  222  TRP222      0.0946
    194  CD2       15.5270   21.5620   15.4280 C.ar  222  TRP222      0.0152
    195  NE1       14.2180   21.1260   13.6540 N.ar  222  TRP222     -0.2442
    196  CE2       15.4260   21.6570   14.0230 C.ar  222  TRP222      0.0810
    197  CE3       16.6770   22.0410   16.0490 C.ar  222  TRP222      0.0012
    198  CZ2       16.4210   22.2230   13.2500 C.ar  222  TRP222      0.0191
    199  CZ3       17.6790   22.6020   15.2540 C.ar  222  TRP222      0.0001
    200  CH2       17.5430   22.6820   13.8890 C.ar  222  TRP222      0.0015
    201  N         12.1630   18.5060   19.1710 N.am  223  LYS223     -0.1977
    202  CA        11.9660   17.9070   20.4800 C.3   223  LYS223      0.1596
    203  C         13.2270   18.0590   21.3540 C.2   223  LYS223      0.2287
    204  O         14.3540   17.8840   20.8770 O.2   223  LYS223     -0.2864
    205  CB        11.5720   16.4100   20.3370 C.3   223  LYS223      0.0298
    206  CG        11.0100   15.7970   21.6150 C.3   223  LYS223      0.0038
    207  CD        10.1740   14.5470   21.3100 C.3   223  LYS223      0.0206
    208  CE        10.9920   13.4130   20.7050 C.3   223  LYS223      0.1093
    209  NZ        11.9740   12.8520   21.6770 N.3   223  LYS223     -0.1314
@<TRIPOS>BOND
     1   108   109    1
     2   104   105    2
     3   104   103    1
     4   102   103    1
     5   120   121    1
     6   109   110    1
     7   109   112    1
     8   128   129    2
     9   128   127    1
    10   103   106    1
    11   110   111    2
    12   110   114   am
    13   136   137    1
    14   171   172    2
    15   171   170    1
    16   116   117    2
    17   116   115    1
    18   121   122    1
    19   121   124    1
    20   114   115    1
    21   106   107    1
    22   112   113    1
    23   126   122   am
    24   126   127    1
    25   122   123    2
    26   130   127    1
    27   130   131    1
    28   138   137    1
    29   138   139    2
    30   115   118    1
    31   137   140    1
    32   170   173    1
    33   170   169    1
    34   176   177    1
    35   118   119    1
    36   180   181    1
    37   180   177    1
    38   124   125    1
    39   173   174    1
    40   168   167    2
    41   132   131   ar
    42   132   134   ar
    43   131   133   ar
    44   177   178    1
    45   178   179    2
    46   141   140    1
    47   140   142    1
    48   169   167   am
    49   169   175    1
    50   164   163    1
    51   167   166    1
    52     6     7    1
    53     6     5    1
    54   134   135   ar
    55   133   135   ar
    56   174   175    1
    57     7     1    1
    58   163   160    1
    59   143   144    1
    60   146   145    2
    61     5     2    1
    62   165   166    1
    63   165   161   am
    64    99    98    2
    65    83    82    1
    66     1     2    1
    67   160   161    1
    68   160   159    1
    69   148   147    1
    70    88    87    2
    71   161   162    2
    72   144   145    1
    73   144   147    1
    74   145   150   am
    75   100   101    1
    76   100    97    1
    77    82    84    1
    78    82    81    2
    79     2     3    1
    80   147   149    1
    81    93    92    2
    82    98    97    1
    83   159   152   am
    84     4     3    2
    85    80    81    1
    86    80    79    1
    87    97    96    1
    88   198   200   ar
    89   198   196   ar
    90    87    90   am
    91    87    86    1
    92     3     8   am
    93   152   153    2
    94   152   151    1
    95    91    92    1
    96    91    90    1
    97    91    94    1
    98   150   151    1
    99   195   196   ar
   100   195   193   ar
   101    95    94    1
   102   151   154    1
   103   200   199   ar
   104   196   194   ar
   105    79    78    1
   106    86    89    1
   107    86    85    1
   108    63    62   ar
   109    64    62   ar
   110     8     9    1
   111   193   192   ar
   112    62    61    1
   113    50    48   ar
   114    50    49   ar
   115   199   197   ar
   116   154   155    1
   117     9    10    1
   118     9    12    1
   119    78    75    1
   120   194   192   ar
   121   194   197   ar
   122    48    46   ar
   123   155   156    1
   124    21    19    1
   125   186   183    1
   126   192   191    1
   127    19    20    1
   128    19    18    1
   129    10    11    2
   130    10    14   am
   131    49    47   ar
   132    77    76    2
   133    61    60    1
   134    12    13    1
   135    76    75    1
   136    75    74    1
   137    14    15    1
   138   158   156   ar
   139   156   157   ar
   140    46    47   ar
   141    46    45    1
   142   182   183    1
   143   183   184    1
   144    60    57    1
   145    29    27    1
   146   191   188    1
   147    57    56    1
   148    57    58    1
   149   187   184   am
   150   187   188    1
   151   184   185    2
   152    18    15    1
   153   188   189    1
   154    15    16    1
   155    54    53    2
   156    59    58    2
   157    74    67   am
   158    45    42    1
   159    55    52    1
   160    56    53   am
   161    53    52    1
   162    27    28    1
   163    27    26    1
   164    40    38    1
   165    44    43    2
   166    42    43    1
   167    42    41    1
   168    68    67    2
   169    67    66    1
   170    52    51    1
   171    39    38    1
   172    16    17    2
   173   189   201   am
   174   189   190    2
   175   201   202    1
   176    38    37    2
   177    72    71    1
   178    72    73    1
   179    26    23    1
   180    41    32   am
   181    70    71    1
   182    70    69    1
   183    25    24    2
   184    33    32    2
   185    66    65    1
   186    66    69    1
   187    37    36    1
   188   205   202    1
   189   205   206    1
   190    24    23    1
   191    32    31    1
   192   202   203    1
   193    23    22    1
   194   208   207    1
   195   208   209    1
   196   204   203    2
   197    34    31    1
   198    34    35    1
   199    36    35    1
   200   207   206    1
   201    31    30    1
