@<TRIPOS>MOLECULE
tmp/1z1nA09.pdb
 214 208 0 0 0
SMALL
GASTEIGER

@<TRIPOS>ATOM
      1  N         23.7010   29.7370   -7.0090 N.3     8  ILE8       -0.1245
      2  CA        24.6420   28.9110   -7.7310 C.3     8  ILE8        0.1561
      3  C         25.6810   29.8330   -8.3320 C.2     8  ILE8        0.2260
      4  O         25.3820   30.5160   -9.3010 O.2     8  ILE8       -0.2867
      5  CB        23.9570   28.1320   -8.8670 C.3     8  ILE8        0.0252
      6  CG1       22.5830   27.6480   -8.4000 C.3     8  ILE8        0.0019
      7  CG2       24.8600   27.0280   -9.3600 C.3     8  ILE8        0.0019
      8  CD1       22.0970   26.3510   -8.9820 C.3     8  ILE8        0.0001
      9  N         22.6790   33.3170  -10.8510 N.3    22  VAL22      -0.1231
     10  CA        21.5530   32.3890  -10.7750 C.3    22  VAL22       0.1692
     11  C         21.0390   32.3800   -9.3240 C.2    22  VAL22       0.2592
     12  O         21.8140   32.6710   -8.3910 O.2    22  VAL22      -0.2718
     13  CB        22.0120   30.9710  -11.1490 C.3    22  VAL22       0.0266
     14  CG1       20.8130   29.9780  -11.2380 C.3    22  VAL22       0.0020
     15  CG2       22.8490   30.9970  -12.4360 C.3    22  VAL22       0.0020
     16  N         19.7450   32.0740   -9.1540 N.am   23  VAL23      -0.1966
     17  CA        19.1310   31.8120   -7.8560 C.3    23  VAL23       0.1727
     18  C         18.0880   30.7020   -7.9910 C.2    23  VAL23       0.2616
     19  O         16.9340   30.9890   -8.3220 O.2    23  VAL23      -0.2715
     20  CB        18.4640   33.0660   -7.2610 C.3    23  VAL23       0.0290
     21  CG1       17.5310   32.6900   -6.0920 C.3    23  VAL23       0.0023
     22  CG2       19.5170   34.1090   -6.7840 C.3    23  VAL23       0.0023
     23  N         18.5120   29.4580   -7.7360 N.am   24  PHE24      -0.1960
     24  CA        17.6970   28.2510   -7.8000 C.3    24  PHE24       0.1771
     25  C         16.8640   28.1170   -6.5090 C.2    24  PHE24       0.2619
     26  O         17.3580   28.3890   -5.4030 O.2    24  PHE24      -0.2715
     27  CB        18.6280   27.0590   -8.0440 C.3    24  PHE24       0.0574
     28  CG        17.9480   25.7090   -8.0540 C.ar   24  PHE24      -0.0200
     29  CD1       17.3900   25.1990   -9.2170 C.ar   24  PHE24      -0.0042
     30  CD2       17.9210   24.9270   -6.9040 C.ar   24  PHE24      -0.0042
     31  CE1       16.7870   23.9270   -9.2380 C.ar   24  PHE24      -0.0003
     32  CE2       17.3070   23.6370   -6.9030 C.ar   24  PHE24      -0.0003
     33  CZ        16.7510   23.1400   -8.0760 C.ar   24  PHE24      -0.0000
     34  N         15.5810   27.7870   -6.6540 N.am   25  TYR25      -0.1974
     35  CA        14.6650   27.6610   -5.5330 C.3    25  TYR25       0.1639
     36  C         14.3380   26.2090   -5.2590 C.2    25  TYR25       0.2290
     37  O         13.5930   25.5520   -6.0070 O.2    25  TYR25      -0.2864
     38  CB        13.3960   28.4420   -5.7950 C.3    25  TYR25       0.0560
     39  CG        13.5750   29.9450   -5.6620 C.ar   25  TYR25      -0.0198
     40  CD1       13.8860   30.7320   -6.7650 C.ar   25  TYR25      -0.0009
     41  CD2       13.4080   30.5750   -4.4350 C.ar   25  TYR25      -0.0009
     42  CE1       14.0460   32.0930   -6.6450 C.ar   25  TYR25       0.0417
     43  CE2       13.5760   31.9520   -4.3070 C.ar   25  TYR25       0.0417
     44  CZ        13.8800   32.6970   -5.4170 C.ar   25  TYR25       0.1957
     45  OH        14.0380   34.0630   -5.2990 O.3    25  TYR25      -0.2866
     46  N         10.4200   24.9620   -4.7320 N.3    28  LYS28      -0.1231
     47  CA         9.6150   24.9130   -5.9660 C.3    28  LYS28       0.1693
     48  C          9.8660   23.5660   -6.6360 C.2    28  LYS28       0.2592
     49  O          8.9210   22.8290   -7.0060 O.2    28  LYS28      -0.2718
     50  CB         9.9840   26.0230   -6.9640 C.3    28  LYS28       0.0285
     51  CG         9.8470   27.4900   -6.5180 C.3    28  LYS28       0.0035
     52  CD         9.7940   28.4360   -7.7660 C.3    28  LYS28       0.0206
     53  CE        10.3810   29.8810   -7.5430 C.3    28  LYS28       0.1093
     54  NZ         9.4510   30.8230   -6.8260 N.3    28  LYS28      -0.1314
     55  N         11.1500   23.2330   -6.7380 N.am   29  HIS29      -0.1976
     56  CA        11.6010   21.9980   -7.3300 C.3    29  HIS29       0.1656
     57  C         11.2680   20.7410   -6.5420 C.2    29  HIS29       0.2291
     58  O         10.8280   19.7530   -7.1390 O.2    29  HIS29      -0.2864
     59  CB        13.1050   22.0820   -7.6100 C.3    29  HIS29       0.0771
     60  CG        13.4210   22.9350   -8.7900 C.ar   29  HIS29       0.0820
     61  ND1       13.4990   24.3100   -8.7110 N.ar   29  HIS29      -0.2267
     62  CD2       13.5930   22.6230  -10.0960 C.ar   29  HIS29       0.1154
     63  CE1       13.7530   24.8060   -9.9070 C.ar   29  HIS29       0.1986
     64  NE2       13.8000   23.8030  -10.7670 N.ar   29  HIS29      -0.2212
     65  N          7.4780   20.1720   -6.7860 N.3    32  ALA32      -0.1231
     66  CA         7.2200   19.6670   -8.1380 C.3    32  ALA32       0.1694
     67  C          7.6280   18.2140   -8.3600 C.2    32  ALA32       0.2591
     68  O          6.8530   17.4350   -8.9090 O.2    32  ALA32      -0.2718
     69  CB         7.9060   20.5490   -9.1520 C.3    32  ALA32       0.0304
     70  N          8.8460   17.8650   -7.9430 N.am   33  LEU33      -0.1980
     71  CA         9.4060   16.5470   -8.2310 C.3    33  LEU33       0.1596
     72  C          8.8140   15.4270   -7.3600 C.2    33  LEU33       0.2287
     73  O          8.7010   14.2660   -7.8030 O.2    33  LEU33      -0.2864
     74  CB        10.9430   16.5520   -8.1540 C.3    33  LEU33       0.0297
     75  CG        11.8400   17.3840   -9.1000 C.3    33  LEU33       0.0022
     76  CD1       12.8810   16.4500   -9.6480 C.3    33  LEU33       0.0001
     77  CD2       11.1740   18.1060  -10.2500 C.3    33  LEU33       0.0001
     78  N          5.6970   14.3190   -8.9660 N.3    36  MET36      -0.1245
     79  CA         5.9240   13.3880  -10.0660 C.3    36  MET36       0.1570
     80  C          6.3600   12.0050   -9.5920 C.2    36  MET36       0.2261
     81  O          6.8560   11.1940  -10.3980 O.2    36  MET36      -0.2867
     82  CB         6.9890   13.9490  -11.0000 C.3    36  MET36       0.0387
     83  CG         6.7050   15.3410  -11.5460 C.3    36  MET36       0.0595
     84  SD         8.1940   15.9880  -12.3410 S.3    36  MET36      -0.1393
     85  CE         8.6190   14.6520  -13.4730 C.3    36  MET36       0.0692
     86  N         16.7940   12.1890   -8.8170 N.3    42  SER42      -0.1202
     87  CA        16.4550   12.9840  -10.0000 C.3    42  SER42       0.2020
     88  C         17.4850   14.0560  -10.2720 C.2    42  SER42       0.2619
     89  O         17.6790   14.4580  -11.4390 O.2    42  SER42      -0.2717
     90  CB        15.1260   13.7110   -9.8100 C.3    42  SER42       0.2103
     91  OG        14.0920   12.8180   -9.4370 O.3    42  SER42      -0.2182
     92  N         18.1230   14.5460   -9.2000 N.am   43  CYS43      -0.1969
     93  CA        19.1330   15.6350   -9.3050 C.3    43  CYS43       0.1712
     94  C         20.4640   15.4320   -8.5910 C.2    43  CYS43       0.2296
     95  O         21.3650   16.2780   -8.7040 O.2    43  CYS43      -0.2864
     96  CB        18.5300   16.9180   -8.8230 C.3    43  CYS43       0.0983
     97  SG        17.1350   17.2320   -9.7780 S.3    43  CYS43      -0.0798
     98  N         24.9220   19.3150   -7.6770 N.3    55  PHE55      -0.1241
     99  CA        23.8850   19.1030   -8.7040 C.3    55  PHE55       0.1605
    100  C         24.3080   18.2120   -9.8930 C.2    55  PHE55       0.2264
    101  O         25.1380   18.6200  -10.6830 O.2    55  PHE55      -0.2867
    102  CB        23.3630   20.4250   -9.2660 C.3    55  PHE55       0.0534
    103  CG        22.4060   20.2360  -10.3940 C.ar   55  PHE55      -0.0203
    104  CD1       21.2820   19.4250  -10.2310 C.ar   55  PHE55      -0.0042
    105  CD2       22.6470   20.8430  -11.6270 C.ar   55  PHE55      -0.0042
    106  CE1       20.3720   19.2430  -11.2780 C.ar   55  PHE55      -0.0003
    107  CE2       21.7650   20.6730  -12.6900 C.ar   55  PHE55      -0.0003
    108  CZ        20.6080   19.8840  -12.5130 C.ar   55  PHE55      -0.0000
    109  N         26.1090   22.7360  -16.4170 N.3    71  TYR71      -0.1241
    110  CA        25.0030   23.2770  -15.6640 C.3    71  TYR71       0.1605
    111  C         23.8270   23.3980  -16.5760 C.2    71  TYR71       0.2264
    112  O         22.8240   22.6740  -16.3700 O.2    71  TYR71      -0.2867
    113  CB        25.3320   24.5860  -14.9510 C.3    71  TYR71       0.0534
    114  CG        25.6940   24.3800  -13.4790 C.ar   71  TYR71      -0.0201
    115  CD1       27.0000   24.5950  -13.0370 C.ar   71  TYR71      -0.0009
    116  CD2       24.7240   23.9630  -12.5320 C.ar   71  TYR71      -0.0009
    117  CE1       27.3540   24.4100  -11.6860 C.ar   71  TYR71       0.0417
    118  CE2       25.0540   23.7730  -11.1600 C.ar   71  TYR71       0.0417
    119  CZ        26.3840   24.0070  -10.7430 C.ar   71  TYR71       0.1957
    120  OH        26.7980   23.8460   -9.4270 O.3    71  TYR71      -0.2866
    121  N         22.3040   19.9450  -17.7020 N.3    74  ASN74      -0.1225
    122  CA        21.5500   19.0930  -16.7910 C.3    74  ASN74       0.1785
    123  C         20.2940   19.8150  -16.2940 C.2    74  ASN74       0.2597
    124  O         19.2830   19.1900  -16.0040 O.2    74  ASN74      -0.2718
    125  CB        22.4650   18.6460  -15.6530 C.3    74  ASN74       0.1169
    126  CG        23.4450   17.5640  -16.0830 C.2    74  ASN74       0.2627
    127  OD1       23.0620   16.5680  -16.7000 O.2    74  ASN74      -0.2716
    128  ND2       24.6990   17.7310  -15.7270 N.am   74  ASN74      -0.0877
    129  N         20.3830   21.1350  -16.2420 N.am   75  CYS75      -0.1970
    130  CA        19.2810   21.9620  -15.8720 C.3    75  CYS75       0.1712
    131  C         18.1740   21.8000  -16.8850 C.2    75  CYS75       0.2296
    132  O         17.0700   21.3030  -16.5610 O.2    75  CYS75      -0.2864
    133  CB        19.7010   23.4320  -15.8420 C.3    75  CYS75       0.0983
    134  SG        20.5370   23.9890  -14.3220 S.3    75  CYS75      -0.0798
    135  N         16.0330   18.3730  -17.9810 N.3    78  CYS78      -0.1221
    136  CA        14.7980   18.0010  -17.3130 C.3    78  CYS78       0.1808
    137  C         13.6170   18.9050  -17.6880 C.2    78  CYS78       0.2601
    138  O         12.5250   18.3970  -17.8970 O.2    78  CYS78      -0.2717
    139  CB        14.9560   17.9810  -15.8250 C.3    78  CYS78       0.0970
    140  SG        13.3750   17.5670  -14.9980 S.3    78  CYS78      -0.0800
    141  N         13.8360   20.2280  -17.7370 N.am   79  HIS79      -0.1975
    142  CA        12.8780   21.1650  -18.3060 C.3    79  HIS79       0.1656
    143  C         12.3090   20.6640  -19.6760 C.2    79  HIS79       0.2291
    144  O         11.0730   20.5100  -19.8640 O.2    79  HIS79      -0.2864
    145  CB        13.5540   22.5270  -18.4410 C.3    79  HIS79       0.0771
    146  CG        13.7540   23.2290  -17.1370 C.ar   79  HIS79       0.0820
    147  ND1       14.1640   24.5470  -17.0460 N.ar   79  HIS79      -0.2267
    148  CD2       13.5560   22.8110  -15.8610 C.ar   79  HIS79       0.1154
    149  CE1       14.2350   24.8990  -15.7750 C.ar   79  HIS79       0.1986
    150  NE2       13.8530   23.8690  -15.0390 N.ar   79  HIS79      -0.2212
    151  N         12.0870   17.7070  -20.7190 N.3    81  LYS81      -0.1231
    152  CA        11.2670   16.4990  -20.6220 C.3    81  LYS81       0.1693
    153  C          9.9680   16.5990  -19.7600 C.2    81  LYS81       0.2591
    154  O          9.2560   15.6030  -19.5260 O.2    81  LYS81      -0.2718
    155  CB        12.1290   15.2600  -20.3410 C.3    81  LYS81       0.0285
    156  CG        12.9610   15.2670  -19.0580 C.3    81  LYS81       0.0035
    157  CD        13.8810   14.0120  -19.0260 C.3    81  LYS81       0.0206
    158  CE        14.4180   13.6580  -17.6260 C.3    81  LYS81       0.1093
    159  NZ        15.2390   12.3800  -17.7360 N.3    81  LYS81      -0.1314
    160  N          9.6460   17.8220  -19.3350 N.am   82  VAL82      -0.1980
    161  CA         8.4450   18.0870  -18.5270 C.3    82  VAL82       0.1595
    162  C          7.6400   19.2610  -19.1140 C.2    82  VAL82       0.2287
    163  O          6.6770   19.7330  -18.5120 O.2    82  VAL82      -0.2864
    164  CB         8.7700   18.3500  -17.0020 C.3    82  VAL82       0.0276
    165  CG1        9.6380   17.2090  -16.4220 C.3    82  VAL82       0.0022
    166  CG2        9.4150   19.7630  -16.7810 C.3    82  VAL82       0.0022
    167  N          4.9400   21.0300  -17.2500 N.3    86  TYR86      -0.1241
    168  CA         5.2900   22.4110  -16.9500 C.3    86  TYR86       0.1605
    169  C          5.8530   23.0400  -18.2250 C.2    86  TYR86       0.2264
    170  O          7.0440   22.8880  -18.5610 O.2    86  TYR86      -0.2867
    171  CB         6.2240   22.5120  -15.7260 C.3    86  TYR86       0.0534
    172  CG         5.6730   21.8610  -14.4590 C.ar   86  TYR86      -0.0201
    173  CD1        5.7990   20.4800  -14.2350 C.ar   86  TYR86      -0.0009
    174  CD2        5.0550   22.6290  -13.4710 C.ar   86  TYR86      -0.0009
    175  CE1        5.3000   19.8830  -13.0730 C.ar   86  TYR86       0.0417
    176  CE2        4.5520   22.0380  -12.3010 C.ar   86  TYR86       0.0417
    177  CZ         4.6770   20.6740  -12.1140 C.ar   86  TYR86       0.1957
    178  OH         4.1660   20.1070  -10.9660 O.3    86  TYR86      -0.2866
    179  N          5.7860   26.2280  -18.8510 N.3    88  THR88      -0.1203
    180  CA         6.3800   27.4550  -18.3230 C.3    88  THR88       0.1994
    181  C          7.8290   27.2800  -17.7640 C.2    88  THR88       0.2618
    182  O          8.4200   28.2200  -17.1980 O.2    88  THR88      -0.2717
    183  CB         5.4770   27.9280  -17.1930 C.3    88  THR88       0.1784
    184  OG1        5.2180   26.8110  -16.3270 O.3    88  THR88      -0.2211
    185  CG2        4.1420   28.3830  -17.7630 C.3    88  THR88       0.0376
    186  N          8.3920   26.0840  -17.9310 N.am   89  ALA89      -0.1966
    187  CA         9.7380   25.7820  -17.4650 C.3    89  ALA89       0.1713
    188  C         10.7840   26.4550  -18.3730 C.2    89  ALA89       0.2458
    189  O         10.8070   26.1800  -19.5740 O.2    89  ALA89      -0.2730
    190  CB         9.9390   24.2780  -17.4080 C.3    89  ALA89       0.0333
    191  N         11.6550   27.3360  -17.8040 N.am   90  PRO90      -0.2727
    192  CA        12.6030   28.1820  -18.5760 C.3    90  PRO90       0.1402
    193  C         13.4950   27.4230  -19.5560 C.2    90  PRO90       0.2269
    194  O         14.0400   26.3630  -19.2120 O.2    90  PRO90      -0.2865
    195  CB        13.4150   28.8860  -17.4870 C.3    90  PRO90       0.0296
    196  CG        12.4630   28.9830  -16.3570 C.3    90  PRO90       0.0237
    197  CD        11.7790   27.6150  -16.3640 C.3    90  PRO90       0.0939
    198  N         15.3480   34.2370  -16.7330 N.3    97  ARG97      -0.1231
    199  CA        14.5800   33.2980  -15.9350 C.3    97  ARG97       0.1694
    200  C         15.4890   32.5330  -14.9480 C.2    97  ARG97       0.2592
    201  O         15.0760   32.1920  -13.8110 O.2    97  ARG97      -0.2718
    202  CB        13.7770   32.3700  -16.8500 C.3    97  ARG97       0.0321
    203  CG        12.8890   33.1720  -17.8160 C.3    97  ARG97       0.0489
    204  CD        11.4790   32.6070  -17.9570 C.3    97  ARG97       0.2205
    205  NE        10.8280   32.4630  -16.6580 N.pl3  97  ARG97      -0.0865
    206  CZ         9.9620   31.4970  -16.3550 C.cat  97  ARG97       0.5346
    207  NH1        9.6280   30.5750  -17.2630 N.pl3  97  ARG97       0.1354
    208  NH2        9.4380   31.4470  -15.1330 N.pl3  97  ARG97       0.1354
    209  N         16.7330   32.3020  -15.3780 N.am   98  CYS98      -0.1970
    210  CA        17.7520   31.7660  -14.5070 C.3    98  CYS98       0.1712
    211  C         18.7590   32.8050  -13.9680 C.2    98  CYS98       0.2296
    212  O         18.9400   32.9220  -12.7530 O.2    98  CYS98      -0.2864
    213  CB        18.4030   30.5700  -15.1720 C.3    98  CYS98       0.0983
    214  SG        17.1720   29.2130  -15.4030 S.3    98  CYS98      -0.0798
@<TRIPOS>BOND
     1   151   152    1
     2   152   155    1
     3   152   153    1
     4   155   156    1
     5   144   143    2
     6   153   154    2
     7   153   160   am
     8   143   142    1
     9   189   188    2
    10   193   194    2
    11   193   192    1
    12   160   161    1
    13   162   161    1
    14   162   163    2
    15   156   157    1
    16   157   158    1
    17   179   180    1
    18   192   191    1
    19   192   195    1
    20   170   169    2
    21   161   164    1
    22   145   142    1
    23   145   146    1
    24   188   191   am
    25   188   187    1
    26   180   181    1
    27   180   183    1
    28   142   141    1
    29   169   168    1
    30   135   136    1
    31   204   203    1
    32   204   205    1
    33   186   181   am
    34   186   187    1
    35   138   137    2
    36   203   202    1
    37   191   197    1
    38   181   182    2
    39   185   183    1
    40   141   137   am
    41   159   158    1
    42   121   122    1
    43   137   136    1
    44   195   196    1
    45   187   190    1
    46   136   139    1
    47   207   206    1
    48   167   168    1
    49   183   184    1
    50   146   147   ar
    51   146   148   ar
    52   147   149   ar
    53   164   166    1
    54   164   165    1
    55   168   171    1
    56   131   132    2
    57   131   130    1
    58   202   199    1
    59   122   123    1
    60   122   125    1
    61   198   199    1
    62   127   126    2
    63   205   206    2
    64   111   112    2
    65   111   110    1
    66   109   110    1
    67   197   196    1
    68   206   208    1
    69   123   129   am
    70   123   124    2
    71   129   130    1
    72   126   128   am
    73   126   125    1
    74   199   200    1
    75   130   133    1
    76   148   150   ar
    77   133   134    1
    78   139   140    1
    79   149   150   ar
    80   171   172    1
    81   110   113    1
    82   214   213    1
    83   209   200   am
    84   209   210    1
    85   213   210    1
    86   113   114    1
    87   200   201    2
    88   210   211    1
    89   172   173   ar
    90   172   174   ar
    91   173   175   ar
    92   211   212    2
    93   114   115   ar
    94   114   116   ar
    95    85    84    1
    96   174   176   ar
    97   175   177   ar
    98   115   117   ar
    99   107   108   ar
   100   107   105   ar
   101   116   118   ar
   102   108   106   ar
   103    15    13    1
   104    84    83    1
   105   176   177   ar
   106   177   178    1
   107   117   119   ar
   108   105   103   ar
   109    83    82    1
   110    89    88    2
   111   106   104   ar
   112    14    13    1
   113   118   119   ar
   114    13    10    1
   115    82    79    1
   116     9    10    1
   117    10    11    1
   118    64    62   ar
   119    64    63   ar
   120   119   120    1
   121   101   100    2
   122    81    80    2
   123   103   104   ar
   124   103   102    1
   125    88    87    1
   126    88    92   am
   127    77    75    1
   128    62    60   ar
   129    79    80    1
   130    79    78    1
   131    87    90    1
   132    87    86    1
   133    63    61   ar
   134   100    99    1
   135    90    91    1
   136    97    96    1
   137    76    75    1
   138     7     5    1
   139    11    16   am
   140    11    12    2
   141    93    92    1
   142    93    96    1
   143    93    94    1
   144     4     3    2
   145   102    99    1
   146    31    29   ar
   147    31    33   ar
   148    29    28   ar
   149    16    17    1
   150    69    66    1
   151    75    74    1
   152     8     6    1
   153    68    67    2
   154     5     6    1
   155     5     2    1
   156    60    61   ar
   157    60    59    1
   158    95    94    2
   159    99    98    1
   160    67    66    1
   161    67    70   am
   162     3     2    1
   163    19    18    2
   164    71    74    1
   165    71    70    1
   166    71    72    1
   167    66    65    1
   168    33    32   ar
   169    28    27    1
   170    28    30   ar
   171    27    24    1
   172    18    17    1
   173    18    23   am
   174    17    20    1
   175    73    72    2
   176    24    23    1
   177    24    25    1
   178    52    53    1
   179    52    51    1
   180     2     1    1
   181    59    56    1
   182    53    54    1
   183    56    55    1
   184    56    57    1
   185    20    22    1
   186    20    21    1
   187    58    57    2
   188    49    48    2
   189    50    51    1
   190    50    47    1
   191    30    32   ar
   192    40    42   ar
   193    40    39   ar
   194    55    48   am
   195    34    25   am
   196    34    35    1
   197    42    44   ar
   198    48    47    1
   199    25    26    2
   200    37    36    2
   201    47    46    1
   202    38    39    1
   203    38    35    1
   204    39    41   ar
   205    35    36    1
   206    44    45    1
   207    44    43   ar
   208    41    43   ar
