@<TRIPOS>MOLECULE
tmp/1z1nA16.pdb
 177 171 0 0 0
SMALL
GASTEIGER

@<TRIPOS>ATOM
      1  N         31.8930   29.5850   23.2020 N.3   281  CYS281     -0.1221
      2  CA        33.0540   30.1350   23.9480 C.3   281  CYS281      0.1808
      3  C         34.3930   29.6250   23.3980 C.2   281  CYS281      0.2601
      4  O         35.3210   30.4290   23.1750 O.2   281  CYS281     -0.2717
      5  CB        32.9780   29.8200   25.4310 C.3   281  CYS281      0.0970
      6  SG        31.5130   30.5330   26.2730 S.3   281  CYS281     -0.0800
      7  N         34.4770   28.3080   23.2150 N.am  282  HIS282     -0.1961
      8  CA        35.6850   27.6640   22.7260 C.3   282  HIS282      0.1787
      9  C         35.5730   27.7690   21.2310 C.2   282  HIS282      0.2620
     10  O         35.2190   26.7850   20.5440 O.2   282  HIS282     -0.2715
     11  CB        35.6850   26.2000   23.1620 C.3   282  HIS282      0.0785
     12  CG        35.7630   26.0350   24.6370 C.ar  282  HIS282      0.0821
     13  ND1       36.9000   26.3060   25.3540 N.ar  282  HIS282     -0.2267
     14  CD2       34.8220   25.6810   25.5380 C.ar  282  HIS282      0.1154
     15  CE1       36.6560   26.1110   26.6370 C.ar  282  HIS282      0.1986
     16  NE2       35.3980   25.7260   26.7710 N.ar  282  HIS282     -0.2212
     17  N         35.7860   28.9800   20.7360 N.am  283  HIS283     -0.1960
     18  CA        35.4250   29.3440   19.3800 C.3   283  HIS283      0.1772
     19  C         36.4580   28.8200   18.3810 C.2   283  HIS283      0.2462
     20  O         37.6510   28.6600   18.7420 O.2   283  HIS283     -0.2730
     21  CB        35.3640   30.8650   19.2710 C.3   283  HIS283      0.0785
     22  CG        36.6540   31.5330   19.6470 C.ar  283  HIS283      0.0821
     23  ND1       37.6280   31.8380   18.7240 N.ar  283  HIS283     -0.2267
     24  CD2       37.1650   31.8740   20.8570 C.ar  283  HIS283      0.1154
     25  CE1       38.6620   32.3700   19.3420 C.ar  283  HIS283      0.1986
     26  NE2       38.3990   32.4200   20.6330 N.ar  283  HIS283     -0.2212
     27  N         36.0210   28.6160   17.1130 N.am  284  PRO284     -0.2716
     28  CA        36.9400   28.2810   16.0310 C.3   284  PRO284      0.1536
     29  C         37.8110   29.5000   15.7060 C.2   284  PRO284      0.2599
     30  O         37.3810   30.6760   15.8270 O.2   284  PRO284     -0.2715
     31  CB        36.0180   27.9600   14.8490 C.3   284  PRO284      0.0310
     32  CG        34.5840   27.9700   15.3980 C.3   284  PRO284      0.0237
     33  CD        34.6530   28.8590   16.6100 C.3   284  PRO284      0.0939
     34  N         39.0400   29.2180   15.3210 N.am  285  THR285     -0.1937
     35  CA        39.9950   30.2370   14.9690 C.3   285  THR285      0.2028
     36  C         40.1850   30.2240   13.4720 C.2   285  THR285      0.2642
     37  O         39.6800   29.3340   12.7820 O.2   285  THR285     -0.2714
     38  CB        41.3510   29.9140   15.6100 C.3   285  THR285      0.1808
     39  OG1       41.6890   28.5470   15.3180 O.3   285  THR285     -0.2208
     40  CG2       41.2690   30.0800   17.1210 C.3   285  THR285      0.0379
     41  N         40.9290   31.1940   12.9280 N.am  286  GLN286     -0.1976
     42  CA        41.2090   31.0880   11.4950 C.3   286  GLN286      0.1601
     43  C         41.8410   29.7350   11.1170 C.2   286  GLN286      0.2287
     44  O         41.4770   29.1790   10.0880 O.2   286  GLN286     -0.2864
     45  CB        41.9600   32.2960   10.9120 C.3   286  GLN286      0.0394
     46  CG        41.0730   33.5470   10.6510 C.3   286  GLN286      0.0908
     47  CD        39.7300   33.2560    9.9070 C.2   286  GLN286      0.2608
     48  OE1       38.7590   32.7190   10.4900 O.2   286  GLN286     -0.2717
     49  NE2       39.6670   33.6550    8.6270 N.am  286  GLN286     -0.0878
     50  N         40.8660   25.5610   16.3070 N.3   289  GLY289     -0.1210
     51  CA        40.0810   25.7420   17.4970 C.3   289  GLY289      0.1956
     52  C         40.1350   24.4730   18.3130 C.2   289  GLY289      0.2612
     53  O         40.4220   23.3800   17.8020 O.2   289  GLY289     -0.2717
     54  N         39.8730   24.6280   19.6040 N.am  290  SER290     -0.1952
     55  CA        39.9690   23.5640   20.5670 C.3   290  SER290      0.1924
     56  C         39.0860   23.9360   21.7630 C.2   290  SER290      0.2314
     57  O         38.6510   25.1120   21.9310 O.2   290  SER290     -0.2863
     58  CB        41.4320   23.3890   21.0650 C.3   290  SER290      0.2116
     59  OG        42.0180   24.6750   21.3010 O.3   290  SER290     -0.2180
     60  N         40.5010   24.0560   24.4450 N.3   292  ALA292     -0.1231
     61  CA        41.6020   24.4300   25.3180 C.3   292  ALA292      0.1694
     62  C         41.2650   25.6020   26.2340 C.2   292  ALA292      0.2592
     63  O         40.4760   26.4730   25.8560 O.2   292  ALA292     -0.2718
     64  CB        42.8300   24.7680   24.4720 C.3   292  ALA292      0.0304
     65  N         41.9020   25.6440   27.4020 N.am  293  ALA293     -0.1966
     66  CA        41.7760   26.7340   28.3250 C.3   293  ALA293      0.1728
     67  C         42.2570   27.9650   27.5880 C.2   293  ALA293      0.2616
     68  O         43.2830   27.9060   26.9040 O.2   293  ALA293     -0.2715
     69  CB        42.6290   26.4560   29.5340 C.3   293  ALA293      0.0334
     70  N         41.5110   29.0620   27.6740 N.am  294  CYS294     -0.1968
     71  CA        41.7480   30.2460   26.8520 C.3   294  CYS294      0.1712
     72  C         43.0970   30.8570   27.0820 C.2   294  CYS294      0.2296
     73  O         43.6690   31.4960   26.1710 O.2   294  CYS294     -0.2864
     74  CB        40.7650   31.3560   27.2860 C.3   294  CYS294      0.0983
     75  SG        39.0460   30.6970   27.6940 S.3   294  CYS294     -0.0798
     76  N         47.0440   30.8180   24.4320 N.3   298  CYS298     -0.1221
     77  CA        46.4030   31.7610   23.5030 C.3   298  CYS298      0.1808
     78  C         46.2010   33.2160   23.9680 C.2   298  CYS298      0.2601
     79  O         46.7110   34.1250   23.2910 O.2   298  CYS298     -0.2717
     80  CB        45.1460   31.1310   22.9370 C.3   298  CYS298      0.0970
     81  SG        45.5340   29.6490   21.9470 S.3   298  CYS298     -0.0800
     82  N         45.4810   33.4530   25.0890 N.am  299  HIS299     -0.1975
     83  CA        45.1980   34.8360   25.6000 C.3   299  HIS299      0.1656
     84  C         45.9310   35.2390   26.9080 C.2   299  HIS299      0.2291
     85  O         45.4920   34.8610   28.0030 O.2   299  HIS299     -0.2864
     86  CB        43.6590   35.0810   25.7350 C.3   299  HIS299      0.0771
     87  CG        42.9050   34.7810   24.4860 C.ar  299  HIS299      0.0820
     88  ND1       42.8950   35.6310   23.4130 N.ar  299  HIS299     -0.2267
     89  CD2       42.2240   33.6830   24.0980 C.ar  299  HIS299      0.1154
     90  CE1       42.2130   35.0850   22.4200 C.ar  299  HIS299      0.1986
     91  NE2       41.7900   33.9020   22.8150 N.ar  299  HIS299     -0.2212
     92  N         50.7770   35.6420   19.7780 N.3   305  LYS305     -0.1231
     93  CA        50.4340   35.3990   18.3780 C.3   305  LYS305      0.1693
     94  C         49.3430   34.3370   18.2140 C.2   305  LYS305      0.2592
     95  O         48.5100   34.4270   17.3210 O.2   305  LYS305     -0.2718
     96  CB        51.6850   34.9140   17.6280 C.3   305  LYS305      0.0285
     97  CG        51.4770   34.5730   16.1360 C.3   305  LYS305      0.0035
     98  CD        50.9750   35.7910   15.3700 C.3   305  LYS305      0.0206
     99  CE        50.3390   35.4140   14.0560 C.3   305  LYS305      0.1093
    100  NZ        51.3590   35.0490   13.0490 N.3   305  LYS305     -0.1314
    101  N         49.4090   33.2950   19.0340 N.am  306  ASP306     -0.1960
    102  CA        48.4540   32.2000   18.9980 C.3   306  ASP306      0.1840
    103  C         47.0160   32.6740   19.2270 C.2   306  ASP306      0.2623
    104  O         46.0860   32.0790   18.7170 O.2   306  ASP306     -0.2715
    105  CB        48.8120   31.1710   20.0610 C.3   306  ASP306      0.1450
    106  CG        49.6270   30.0020   19.5150 C.2   306  ASP306      0.3671
    107  OD1       49.5560   29.7440   18.2890 O.co2 306  ASP306     -0.2456
    108  OD2       50.3270   29.3300   20.3300 O.co2 306  ASP306     -0.2456
    109  N         46.8360   33.7470   19.9820 N.am  307  GLY307     -0.1940
    110  CA        45.5040   34.3260   20.1370 C.3   307  GLY307      0.2014
    111  C         45.3200   35.6560   19.4230 C.2   307  GLY307      0.2638
    112  O         44.4980   36.4890   19.8350 O.2   307  GLY307     -0.2714
    113  N         46.0750   35.8680   18.3440 N.am  308  ASN308     -0.1972
    114  CA        45.9650   37.0940   17.5590 C.3   308  ASN308      0.1688
    115  C         46.2010   38.3310   18.4160 C.2   308  ASN308      0.2292
    116  O         45.6510   39.4100   18.1450 O.2   308  ASN308     -0.2864
    117  CB        44.5810   37.1770   16.9000 C.3   308  ASN308      0.1181
    118  CG        44.6400   37.7350   15.4810 C.2   308  ASN308      0.2629
    119  OD1       43.6220   38.1850   14.9450 O.2   308  ASN308     -0.2716
    120  ND2       45.8350   37.6960   14.8620 N.am  308  ASN308     -0.0877
    121  N         45.0490   39.0180   21.2890 N.3   310  VAL310     -0.1245
    122  CA        43.9330   39.4180   22.1200 C.3   310  VAL310      0.1561
    123  C         44.3400   39.0480   23.5400 C.2   310  VAL310      0.2260
    124  O         44.6450   37.8990   23.8170 O.2   310  VAL310     -0.2867
    125  CB        42.6040   38.7030   21.6650 C.3   310  VAL310      0.0252
    126  CG1       41.4200   39.1070   22.5690 C.3   310  VAL310      0.0019
    127  CG2       42.3130   38.9310   20.1320 C.3   310  VAL310      0.0019
    128  N         41.0650   41.4260   27.2990 N.3   314  GLN314     -0.1231
    129  CA        40.2470   41.5910   26.1080 C.3   314  GLN314      0.1698
    130  C         39.3520   40.3570   25.8870 C.2   314  GLN314      0.2592
    131  O         38.1640   40.5210   25.5800 O.2   314  GLN314     -0.2718
    132  CB        41.1090   41.8540   24.8560 C.3   314  GLN314      0.0381
    133  CG        41.9190   43.1950   24.8690 C.3   314  GLN314      0.0905
    134  CD        43.0560   43.2470   23.8100 C.2   314  GLN314      0.2608
    135  OE1       43.6360   42.2250   23.4090 O.2   314  GLN314     -0.2717
    136  NE2       43.3640   44.4540   23.3580 N.am  314  GLN314     -0.0878
    137  N         39.9100   39.1530   26.0580 N.am  315  SER315     -0.1952
    138  CA        39.1480   37.9530   25.8370 C.3   315  SER315      0.1924
    139  C         37.9990   37.7900   26.8270 C.2   315  SER315      0.2314
    140  O         37.0700   37.0020   26.5920 O.2   315  SER315     -0.2863
    141  CB        40.0520   36.7230   25.9270 C.3   315  SER315      0.2116
    142  OG        40.2930   36.4880   27.2930 O.3   315  SER315     -0.2180
    143  N         35.7690   42.0750   25.9190 N.3   318  GLN318     -0.1245
    144  CA        35.5440   42.7880   24.6450 C.3   318  GLN318      0.1566
    145  C         34.0380   42.9490   24.3340 C.2   318  GLN318      0.2260
    146  O         33.2610   41.9520   24.4590 O.2   318  GLN318     -0.2867
    147  CB        36.2880   42.0760   23.5030 C.3   318  GLN318      0.0367
    148  CG        35.9630   42.5510   22.0630 C.3   318  GLN318      0.0905
    149  CD        36.8910   41.9200   20.9980 C.2   318  GLN318      0.2608
    150  OE1       36.5930   41.9120   19.7970 O.2   318  GLN318     -0.2717
    151  NE2       38.0380   41.3950   21.4450 N.am  318  GLN318     -0.0878
    152  N         30.8490   41.2900   20.9820 N.3   321  VAL321     -0.1245
    153  CA        31.0690   39.8910   20.6180 C.3   321  VAL321      0.1561
    154  C         30.4270   39.0300   21.7260 C.2   321  VAL321      0.2260
    155  O         30.1600   39.5250   22.8050 O.2   321  VAL321     -0.2867
    156  CB        32.6180   39.5050   20.5110 C.3   321  VAL321      0.0252
    157  CG1       33.2650   39.9400   19.2110 C.3   321  VAL321      0.0019
    158  CG2       33.4210   40.0070   21.7590 C.3   321  VAL321      0.0019
    159  N         31.8600   36.0220   22.5740 N.3   323  THR323     -0.1203
    160  CA        32.9850   35.1600   22.9920 C.3   323  THR323      0.1994
    161  C         33.4990   35.6070   24.3440 C.2   323  THR323      0.2619
    162  O         34.1020   34.8310   25.0720 O.2   323  THR323     -0.2717
    163  CB        34.1520   35.3010   22.0150 C.3   323  THR323      0.1784
    164  OG1       33.6690   35.2750   20.6790 O.3   323  THR323     -0.2211
    165  CG2       35.0550   34.1490   22.1550 C.3   323  THR323      0.0376
    166  N         33.2860   36.8740   24.7140 N.am  324  SER324     -0.1937
    167  CA        33.8210   37.3040   26.0050 C.3   324  SER324      0.2055
    168  C         32.6800   37.3200   26.9880 C.2   324  SER324      0.2643
    169  O         31.4850   37.4700   26.5130 O.2   324  SER324     -0.2714
    170  CB        34.3590   38.7200   25.8490 C.3   324  SER324      0.2130
    171  OG        33.2910   39.5700   25.4930 O.3   324  SER324     -0.2179
    172  N         33.0200   37.3500   28.3010 N.am  325  CYS325     -0.1967
    173  CA        32.0850   37.4140   29.3650 C.3   325  CYS325      0.1712
    174  C         31.2420   38.6560   29.2320 C.2   325  CYS325      0.2296
    175  O         30.0500   38.5500   29.3620 O.2   325  CYS325     -0.2864
    176  CB        32.7400   37.5230   30.7260 C.3   325  CYS325      0.0983
    177  SG        34.3060   36.5130   31.0840 S.3   325  CYS325     -0.0798
@<TRIPOS>BOND
     1    49    47   am
     2    47    48    2
     3    47    46    1
     4    44    43    2
     5    46    45    1
     6    45    42    1
     7    43    42    1
     8    42    41    1
     9    37    36    2
    10    41    36   am
    11   100    99    1
    12    36    35    1
    13    99    98    1
    14    31    32    1
    15    31    28    1
    16   120   118   am
    17   119   118    2
    18    35    34    1
    19    35    38    1
    20    39    38    1
    21    34    29   am
    22    98    97    1
    23    32    33    1
    24   118   117    1
    25    38    40    1
    26    29    30    2
    27    29    28    1
    28    28    27    1
    29    97    96    1
    30    50    51    1
    31    33    27    1
    32   117   114    1
    33    27    19   am
    34    95    94    2
    35    51    52    1
    36   114   113    1
    37   114   115    1
    38    96    93    1
    39    53    52    2
    40   116   115    2
    41    94    93    1
    42    94   101   am
    43   107   106   ar
    44    52    54   am
    45   113   111   am
    46    93    92    1
    47    19    20    2
    48    19    18    1
    49   104   103    2
    50    23    25   ar
    51    23    22   ar
    52   102   101    1
    53   102   103    1
    54   102   105    1
    55   157   156    1
    56   103   109   am
    57    21    18    1
    58    21    22    1
    59    25    26   ar
    60    18    17    1
    61   111   112    2
    62   111   110    1
    63   106   105    1
    64   106   108   ar
    65    54    55    1
    66    22    24   ar
    67   150   149    2
    68   109   110    1
    69   127   125    1
    70   156   153    1
    71   156   158    1
    72    10     9    2
    73    55    58    1
    74    55    56    1
    75   153   152    1
    76   153   154    1
    77    26    24   ar
    78   164   163    1
    79    17     9   am
    80   149   151   am
    81   149   148    1
    82    58    59    1
    83     9     8    1
    84   121   122    1
    85   125   122    1
    86   125   126    1
    87   154   155    2
    88    56    57    2
    89    81    80    1
    90   163   165    1
    91   163   160    1
    92   148   147    1
    93   122   123    1
    94    90    91   ar
    95    90    88   ar
    96   159   160    1
    97     8    11    1
    98     8     7    1
    99    91    89   ar
   100    80    77    1
   101   160   161    1
   102    11    12    1
   103     4     3    2
   104     1     2    1
   105     7     3   am
   106    79    78    2
   107   136   134   am
   108     3     2    1
   109   135   134    2
   110    88    87   ar
   111   147   144    1
   112    77    78    1
   113    77    76    1
   114   123   124    2
   115   134   133    1
   116     2     5    1
   117    78    82   am
   118    89    87   ar
   119   145   146    2
   120   145   144    1
   121   161   166   am
   122   161   162    2
   123    60    61    1
   124    64    61    1
   125    87    86    1
   126    12    13   ar
   127    12    14   ar
   128   144   143    1
   129   166   167    1
   130   132   133    1
   131   132   129    1
   132    82    83    1
   133    61    62    1
   134    13    15   ar
   135     5     6    1
   136   171   170    1
   137    14    16   ar
   138   131   130    2
   139    83    86    1
   140    83    84    1
   141   138   141    1
   142   138   137    1
   143   138   139    1
   144   170   167    1
   145    63    62    2
   146   130   137   am
   147   130   129    1
   148   141   142    1
   149   167   168    1
   150   129   128    1
   151    73    72    2
   152    62    65   am
   153   169   168    2
   154   140   139    2
   155    15    16   ar
   156    71    72    1
   157    71    74    1
   158    71    70    1
   159    68    67    2
   160    84    85    2
   161   168   172   am
   162    74    75    1
   163    65    66    1
   164    67    70   am
   165    67    66    1
   166   172   173    1
   167    66    69    1
   168   174   175    2
   169   174   173    1
   170   173   176    1
   171   176   177    1
