@<TRIPOS>MOLECULE
tmp/1z1rB00.pdb
 112 105 0 0 0
SMALL
GASTEIGER

@<TRIPOS>ATOM
      1  N          6.2990   12.0500   15.2920 N.3     8  ARG8       -0.1245
      2  CA         6.9100   10.7890   15.6900 C.3     8  ARG8        0.1563
      3  C          7.9500   11.1360   16.7590 C.2     8  ARG8        0.2260
      4  O          8.6910   12.1150   16.6110 O.2     8  ARG8       -0.2867
      5  CB         7.6200   10.1340   14.5050 C.3     8  ARG8        0.0307
      6  CG         6.6900    9.7020   13.4030 C.3     8  ARG8        0.0489
      7  CD         7.4310    8.9340   12.3150 C.3     8  ARG8        0.2205
      8  NE         6.5270    8.5780   11.2230 N.pl3   8  ARG8       -0.0865
      9  CZ         6.8440    7.7860   10.2000 C.cat   8  ARG8        0.5346
     10  NH1        8.0540    7.2450   10.1150 N.pl3   8  ARG8        0.1354
     11  NH2        5.9480    7.5410    9.2560 N.pl3   8  ARG8        0.1354
     12  N         13.1730    6.0190   17.0560 N.3    23  LEU23      -0.1245
     13  CA        11.8300    6.2180   17.5630 C.3    23  LEU23       0.1561
     14  C         11.6530    5.5900   18.9550 C.2    23  LEU23       0.2260
     15  O         12.0080    4.4310   19.1590 O.2    23  LEU23      -0.2867
     16  CB        10.8820    5.5480   16.5660 C.3    23  LEU23       0.0270
     17  CG         9.4500    5.9310   16.2880 C.3    23  LEU23       0.0019
     18  CD1        9.3140    7.3920   15.8910 C.3    23  LEU23       0.0001
     19  CD2        8.9930    5.0110   15.1660 C.3    23  LEU23       0.0001
     20  N          9.5870    3.7270   21.0020 N.3    25  ASP25      -0.1239
     21  CA         8.4250    2.9360   20.6360 C.3    25  ASP25       0.1674
     22  C          7.8860    1.9850   21.7000 C.2    25  ASP25       0.2266
     23  O          8.3910    0.8590   21.8520 O.2    25  ASP25      -0.2867
     24  CB         8.8070    2.1450   19.3880 C.3    25  ASP25       0.1410
     25  CG         7.6330    1.4880   18.7210 C.2    25  ASP25       0.3668
     26  OD1        6.5320    1.4900   19.3100 O.co2  25  ASP25      -0.2456
     27  OD2        7.8350    0.9690   17.5980 O.co2  25  ASP25      -0.2456
     28  N          5.3470    0.2900   21.5620 N.3    27  GLY27      -0.1210
     29  CA         4.7150   -0.8760   20.9570 C.3    27  GLY27       0.1956
     30  C          5.7000   -1.9370   20.4750 C.2    27  GLY27       0.2612
     31  O          5.2970   -2.9700   19.9370 O.2    27  GLY27      -0.2717
     32  N          6.9920   -1.6790   20.6590 N.am   28  ALA28      -0.1965
     33  CA         8.0370   -2.6100   20.2440 C.3    28  ALA28       0.1728
     34  C          8.6480   -3.3080   21.4570 C.2    28  ALA28       0.2616
     35  O          9.1450   -2.6550   22.3780 O.2    28  ALA28      -0.2715
     36  CB         9.1340   -1.8600   19.4620 C.3    28  ALA28       0.0334
     37  N          8.6090   -4.6370   21.4580 N.am   29  ASP29      -0.1957
     38  CA         9.1650   -5.4170   22.5580 C.3    29  ASP29       0.1840
     39  C         10.6720   -5.2970   22.5540 C.2    29  ASP29       0.2622
     40  O         11.3060   -5.1960   23.6040 O.2    29  ASP29      -0.2715
     41  CB         8.8300   -6.9070   22.4050 C.3    29  ASP29       0.1450
     42  CG         7.3560   -7.2110   22.6190 C.2    29  ASP29       0.3671
     43  OD1        6.6800   -6.4670   23.3670 O.co2  29  ASP29      -0.2456
     44  OD2        6.8820   -8.2170   22.0520 O.co2  29  ASP29      -0.2456
     45  N         11.2330   -5.3100   21.3500 N.am   30  ASP30      -0.1971
     46  CA        12.6790   -5.2630   21.1570 C.3    30  ASP30       0.1709
     47  C         13.1560   -3.9930   20.4660 C.2    30  ASP30       0.2293
     48  O         12.3580   -3.2400   19.8990 O.2    30  ASP30      -0.2864
     49  CB        13.1110   -6.4540   20.2970 C.3    30  ASP30       0.1436
     50  CG        12.3700   -7.7310   20.6490 C.2    30  ASP30       0.3671
     51  OD1       12.4720   -8.1830   21.8070 O.co2  30  ASP30      -0.2456
     52  OD2       11.6790   -8.2820   19.7590 O.co2  30  ASP30      -0.2456
     53  N         15.2660   -2.4160   17.4520 N.3    32  VAL32      -0.1245
     54  CA        15.6450   -2.7780   16.0910 C.3    32  VAL32       0.1561
     55  C         16.3610   -1.6270   15.3970 C.2    32  VAL32       0.2260
     56  O         15.7940   -0.5460   15.1790 O.2    32  VAL32      -0.2867
     57  CB        14.3980   -3.1500   15.2440 C.3    32  VAL32       0.0252
     58  CG1       14.8270   -3.8140   13.9430 C.3    32  VAL32       0.0019
     59  CG2       13.4870   -4.0710   16.0300 C.3    32  VAL32       0.0019
     60  N         11.5840  -11.3650   13.3670 N.3    47  ILE47      -0.1231
     61  CA        10.6110  -10.5980   14.1280 C.3    47  ILE47       0.1692
     62  C          9.5270  -10.1920   13.1410 C.2    47  ILE47       0.2593
     63  O          9.7990   -9.9920   11.9590 O.2    47  ILE47      -0.2718
     64  CB        11.2590   -9.3490   14.7580 C.3    47  ILE47       0.0266
     65  CG1       11.9280   -8.5100   13.6680 C.3    47  ILE47       0.0019
     66  CG2       12.2740   -9.7740   15.8230 C.3    47  ILE47       0.0020
     67  CD1       12.3190   -7.1270   14.1090 C.3    47  ILE47       0.0001
     68  N          8.2940  -10.0910   13.6130 N.am   48  GLY48      -0.1942
     69  CA         7.2280   -9.7540   12.6980 C.3    48  GLY48       0.2014
     70  C          6.3190   -8.6540   13.1770 C.2    48  GLY48       0.2639
     71  O          6.2950   -8.3110   14.3560 O.2    48  GLY48      -0.2714
     72  N          5.5660   -8.0990   12.2450 N.am   49  GLY49      -0.1939
     73  CA         4.6230   -7.0510   12.5840 C.3    49  GLY49       0.2014
     74  C          3.7010   -6.8770   11.4040 C.2    49  GLY49       0.2638
     75  O          3.4890   -7.8130   10.6360 O.2    49  GLY49      -0.2714
     76  N          3.1390   -5.6880   11.2510 N.am   50  ILE50      -0.1977
     77  CA         2.2730   -5.4330   10.1180 C.3    50  ILE50       0.1596
     78  C          3.1160   -5.6390    8.8570 C.2    50  ILE50       0.2287
     79  O          4.2350   -5.1180    8.7360 O.2    50  ILE50      -0.2864
     80  CB         1.7100   -3.9850   10.1710 C.3    50  ILE50       0.0276
     81  CG1        0.5810   -3.9200   11.2020 C.3    50  ILE50       0.0022
     82  CG2        1.2170   -3.5420    8.8050 C.3    50  ILE50       0.0022
     83  CD1        0.2330   -2.4800   11.6260 C.3    50  ILE50       0.0001
     84  N         15.2050   -2.7050    8.7400 N.3    79  THR79      -0.1204
     85  CA        14.0140   -2.0430    9.2500 C.3    79  THR79       0.1979
     86  C         13.9570   -0.6540    8.5870 C.2    79  THR79       0.2460
     87  O         14.9970   -0.0360    8.3180 O.2    79  THR79      -0.2732
     88  CB        14.0790   -1.9070   10.8010 C.3    79  THR79       0.1783
     89  OG1       12.9560   -1.1490   11.2590 O.3    79  THR79      -0.2211
     90  CG2       15.3760   -1.2220   11.2420 C.3    79  THR79       0.0376
     91  N         12.7500   -0.1530    8.2860 N.am   80  PRO80      -0.2717
     92  CA        12.6800    1.1710    7.6590 C.3    80  PRO80       0.1535
     93  C         13.0310    2.3360    8.6030 C.2    80  PRO80       0.2598
     94  O         13.3200    3.4450    8.1550 O.2    80  PRO80      -0.2715
     95  CB        11.2390    1.2300    7.1510 C.3    80  PRO80       0.0310
     96  CG        10.5050    0.4490    8.1460 C.3    80  PRO80       0.0237
     97  CD        11.4100   -0.7590    8.3700 C.3    80  PRO80       0.0939
     98  N         13.0220    2.0810    9.9100 N.am   81  VAL81      -0.1978
     99  CA        13.3380    3.1210   10.8880 C.3    81  VAL81       0.1596
    100  C         14.0040    2.4750   12.1020 C.2    81  VAL81       0.2287
    101  O         13.7930    1.2860   12.3700 O.2    81  VAL81      -0.2864
    102  CB        12.0560    3.8440   11.3750 C.3    81  VAL81       0.0276
    103  CG1       11.4090    4.6120   10.2310 C.3    81  VAL81       0.0022
    104  CG2       11.0750    2.8280   11.9360 C.3    81  VAL81       0.0022
    105  N         14.2900    1.6410   15.8320 N.3    83  ILE83      -0.1245
    106  CA        13.2930    1.5110   16.8810 C.3    83  ILE83       0.1561
    107  C         13.8630    1.2210   18.2560 C.2    83  ILE83       0.2260
    108  O         14.5810    0.2320   18.4320 O.2    83  ILE83      -0.2867
    109  CB        12.3280    0.3610   16.5400 C.3    83  ILE83       0.0252
    110  CG1       11.4820    0.7350   15.3180 C.3    83  ILE83       0.0019
    111  CG2       11.4580    0.0200   17.7560 C.3    83  ILE83       0.0019
    112  CD1       10.8140   -0.4690   14.6570 C.3    83  ILE83       0.0001
@<TRIPOS>BOND
     1    95    92    1
     2    95    96    1
     3    92    91    1
     4    92    93    1
     5    96    97    1
     6    94    93    2
     7    91    97    1
     8    91    86   am
     9    87    86    2
    10    86    85    1
    11    93    98   am
    12    79    78    2
    13    84    85    1
    14    82    80    1
    15    78    77    1
    16    85    88    1
    17    11     9    1
    18    98    99    1
    19    10     9    1
    20    77    80    1
    21    77    76    1
    22    80    81    1
    23     9     8    2
    24   103   102    1
    25    75    74    2
    26    88    90    1
    27    88    89    1
    28    99   102    1
    29    99   100    1
    30    81    83    1
    31     8     7    1
    32    76    74   am
    33   102   104    1
    34    74    73    1
    35    63    62    2
    36   100   101    2
    37    72    73    1
    38    72    70   am
    39     7     6    1
    40    69    70    1
    41    69    68    1
    42    62    68   am
    43    62    61    1
    44    70    71    2
    45    60    61    1
    46     6     5    1
    47    65    67    1
    48    65    64    1
    49    58    57    1
    50    61    64    1
    51     5     2    1
    52   112   110    1
    53    64    66    1
    54    19    17    1
    55    56    55    2
    56    57    59    1
    57    57    54    1
    58     1     2    1
    59   110   109    1
    60    55    54    1
    61     2     3    1
    62   105   106    1
    63    18    17    1
    64    54    53    1
    65    17    16    1
    66   109   106    1
    67   109   111    1
    68    16    13    1
    69     4     3    2
    70   106   107    1
    71    12    13    1
    72    13    14    1
    73    27    25   ar
    74   107   108    2
    75    25    26   ar
    76    25    24    1
    77    14    15    2
    78    24    21    1
    79    36    33    1
    80    52    50   ar
    81    48    47    2
    82    31    30    2
    83    33    32    1
    84    33    34    1
    85    49    50    1
    86    49    46    1
    87    47    46    1
    88    30    32   am
    89    30    29    1
    90    21    20    1
    91    21    22    1
    92    50    51   ar
    93    29    28    1
    94    46    45    1
    95    45    39   am
    96    34    37   am
    97    34    35    2
    98    37    38    1
    99    22    23    2
   100    44    42   ar
   101    41    38    1
   102    41    42    1
   103    39    38    1
   104    39    40    2
   105    42    43   ar
