@<TRIPOS>MOLECULE
tmp/1z1sA00.pdb
 151 146 0 0 0
SMALL
GASTEIGER

@<TRIPOS>ATOM
      1  N         31.9770   10.4860   39.5740 N.3    18  LEU18      -0.1245
      2  CA        30.9950   11.1750   38.7290 C.3    18  LEU18       0.1561
      3  C         29.5730   10.6270   38.9530 C.2    18  LEU18       0.2260
      4  O         28.6080   11.4030   38.9660 O.2    18  LEU18      -0.2867
      5  CB        31.3880   11.1040   37.2370 C.3    18  LEU18       0.0270
      6  CG        32.6710   11.8850   36.9210 C.3    18  LEU18       0.0019
      7  CD1       33.1130   11.5250   35.5030 C.3    18  LEU18       0.0001
      8  CD2       32.4690   13.3840   37.0580 C.3    18  LEU18       0.0001
      9  N         28.1830   12.2020   42.0330 N.3    21  LEU21      -0.1245
     10  CA        27.6740   13.5540   41.7920 C.3    21  LEU21       0.1561
     11  C         26.3160   13.5260   41.0800 C.2    21  LEU21       0.2260
     12  O         25.4040   14.2900   41.4260 O.2    21  LEU21      -0.2867
     13  CB        28.6780   14.3960   40.9940 C.3    21  LEU21       0.0270
     14  CG        29.9600   14.8000   41.7000 C.3    21  LEU21       0.0019
     15  CD1       30.7020   15.7720   40.7840 C.3    21  LEU21       0.0001
     16  CD2       29.6700   15.4680   43.0380 C.3    21  LEU21       0.0001
     17  N         30.8780   11.4430   47.7690 N.3    29  TRP29      -0.1241
     18  CA        31.9180   11.9920   46.9000 C.3    29  TRP29       0.1605
     19  C         33.1290   12.4440   47.7410 C.2    29  TRP29       0.2264
     20  O         34.2730   12.0540   47.4790 O.2    29  TRP29      -0.2867
     21  CB        31.3380   13.1470   46.0970 C.3    29  TRP29       0.0550
     22  CG        32.2170   13.7120   44.9980 C.ar   29  TRP29       0.0003
     23  CD1       32.3720   13.2170   43.7290 C.ar   29  TRP29       0.0946
     24  CD2       33.0110   14.9040   45.0660 C.ar   29  TRP29       0.0152
     25  NE1       33.2200   14.0350   42.9950 N.ar   29  TRP29      -0.2442
     26  CE2       33.6360   15.0650   43.7990 C.ar   29  TRP29       0.0810
     27  CE3       33.2730   15.8390   46.0800 C.ar   29  TRP29       0.0012
     28  CZ2       34.4900   16.1350   43.5160 C.ar   29  TRP29       0.0191
     29  CZ3       34.1180   16.9080   45.7930 C.ar   29  TRP29       0.0001
     30  CH2       34.7170   17.0470   44.5150 C.ar   29  TRP29       0.0015
     31  N         25.4420   20.6260   47.7850 N.3    65  PHE65      -0.1241
     32  CA        25.6100   20.4530   46.3400 C.3    65  PHE65       0.1605
     33  C         24.3110   20.0740   45.6440 C.2    65  PHE65       0.2264
     34  O         23.9740   20.6920   44.6400 O.2    65  PHE65      -0.2867
     35  CB        26.7200   19.4420   46.0460 C.3    65  PHE65       0.0534
     36  CG        26.8930   19.1190   44.5870 C.ar   65  PHE65      -0.0203
     37  CD1       27.6430   19.9510   43.7650 C.ar   65  PHE65      -0.0042
     38  CD2       26.3170   17.9710   44.0430 C.ar   65  PHE65      -0.0042
     39  CE1       27.8260   19.6540   42.4310 C.ar   65  PHE65      -0.0003
     40  CE2       26.4830   17.6720   42.6900 C.ar   65  PHE65      -0.0003
     41  CZ        27.2350   18.5040   41.8870 C.ar   65  PHE65      -0.0000
     42  N         22.7250   21.9570   42.0480 N.3    69  LEU69      -0.1245
     43  CA        23.0290   21.3930   40.7340 C.3    69  LEU69       0.1561
     44  C         22.4970   19.9810   40.6080 C.2    69  LEU69       0.2260
     45  O         22.6350   19.1740   41.5310 O.2    69  LEU69      -0.2867
     46  CB        24.5450   21.3880   40.4910 C.3    69  LEU69       0.0270
     47  CG        24.9920   20.9700   39.0890 C.3    69  LEU69       0.0019
     48  CD1       24.4580   21.9380   38.0220 C.3    69  LEU69       0.0001
     49  CD2       26.5200   20.9020   39.0130 C.3    69  LEU69       0.0001
     50  N         23.0820   17.1060   37.5960 N.3    71  VAL71      -0.1245
     51  CA        24.0100   16.9610   36.4810 C.3    71  VAL71       0.1561
     52  C         24.1100   15.5120   36.0400 C.2    71  VAL71       0.2260
     53  O         23.9810   14.5850   36.8640 O.2    71  VAL71      -0.2867
     54  CB        25.4130   17.5580   36.8340 C.3    71  VAL71       0.0252
     55  CG1       26.0520   16.8140   38.0050 C.3    71  VAL71       0.0019
     56  CG2       26.3460   17.5950   35.6040 C.3    71  VAL71       0.0019
     57  N         26.7470   13.1580   33.4290 N.3    73  PHE73      -0.1241
     58  CA        28.0030   13.1790   32.6590 C.3    73  PHE73       0.1605
     59  C         28.0440   12.1040   31.5750 C.2    73  PHE73       0.2264
     60  O         27.4970   10.9980   31.7440 O.2    73  PHE73      -0.2867
     61  CB        29.2090   12.9880   33.5740 C.3    73  PHE73       0.0534
     62  CG        29.2920   13.9920   34.6900 C.ar   73  PHE73      -0.0203
     63  CD1       29.8150   15.2640   34.4890 C.ar   73  PHE73      -0.0042
     64  CD2       28.8390   13.6520   35.9640 C.ar   73  PHE73      -0.0042
     65  CE1       29.9120   16.1710   35.5330 C.ar   73  PHE73      -0.0003
     66  CE2       28.9280   14.5830   37.0140 C.ar   73  PHE73      -0.0003
     67  CZ        29.4710   15.8270   36.8040 C.ar   73  PHE73      -0.0000
     68  N         35.3680   14.3830   29.6330 N.3    91  PHE91      -0.1241
     69  CA        33.9310   14.0920   29.6300 C.3    91  PHE91       0.1605
     70  C         33.1500   15.3970   29.6050 C.2    91  PHE91       0.2264
     71  O         33.7150   16.4860   29.7640 O.2    91  PHE91      -0.2867
     72  CB        33.5060   13.2490   30.8480 C.3    91  PHE91       0.0534
     73  CG        33.9380   13.8580   32.1650 C.ar   91  PHE91      -0.0203
     74  CD1       33.0660   14.6230   32.9150 C.ar   91  PHE91      -0.0042
     75  CD2       35.2350   13.6440   32.6420 C.ar   91  PHE91      -0.0042
     76  CE1       33.4910   15.1900   34.1150 C.ar   91  PHE91      -0.0003
     77  CE2       35.6790   14.2150   33.8170 C.ar   91  PHE91      -0.0003
     78  CZ        34.8010   14.9770   34.5700 C.ar   91  PHE91      -0.0000
     79  N         23.5630   24.1350   32.4730 N.3   104  LEU104     -0.1245
     80  CA        25.0110   23.9400   32.4590 C.3   104  LEU104      0.1561
     81  C         25.3480   22.9430   31.3680 C.2   104  LEU104      0.2260
     82  O         24.7850   21.8490   31.3260 O.2   104  LEU104     -0.2867
     83  CB        25.4830   23.3880   33.8170 C.3   104  LEU104      0.0270
     84  CG        26.9770   23.0340   33.8930 C.3   104  LEU104      0.0019
     85  CD1       27.8400   24.2790   33.7590 C.3   104  LEU104      0.0001
     86  CD2       27.2820   22.3220   35.2140 C.3   104  LEU104      0.0001
     87  N         28.9790   21.6540   30.2120 N.3   106  GLN106     -0.1245
     88  CA        30.3790   21.8170   30.6290 C.3   106  GLN106      0.1566
     89  C         31.2690   20.7290   30.0570 C.2   106  GLN106      0.2260
     90  O         30.8390   19.5880   29.8160 O.2   106  GLN106     -0.2867
     91  CB        30.4370   21.8220   32.1560 C.3   106  GLN106      0.0367
     92  CG        31.8120   22.1700   32.7630 C.3   106  GLN106      0.0905
     93  CD        32.3000   23.5360   32.3210 C.2   106  GLN106      0.2608
     94  OE1       32.1430   24.5460   33.0370 O.2   106  GLN106     -0.2717
     95  NE2       32.9270   23.5820   31.1530 N.am  106  GLN106     -0.0878
     96  N         35.0460   18.8950   30.5060 N.3   108  TYR108     -0.1241
     97  CA        36.0320   18.6850   31.5660 C.3   108  TYR108      0.1605
     98  C         37.2500   17.9330   31.0900 C.2   108  TYR108      0.2264
     99  O         37.1430   17.0580   30.2410 O.2   108  TYR108     -0.2867
    100  CB        35.3910   17.8080   32.6420 C.3   108  TYR108      0.0534
    101  CG        34.1450   18.3860   33.2790 C.ar  108  TYR108     -0.0201
    102  CD1       34.2290   19.1490   34.4410 C.ar  108  TYR108     -0.0009
    103  CD2       32.8960   18.1580   32.7230 C.ar  108  TYR108     -0.0009
    104  CE1       33.0840   19.6680   35.0430 C.ar  108  TYR108      0.0417
    105  CE2       31.7530   18.6530   33.3150 C.ar  108  TYR108      0.0417
    106  CZ        31.8460   19.3840   34.4770 C.ar  108  TYR108      0.1957
    107  OH        30.6600   19.8640   35.0130 O.3   108  TYR108     -0.2866
    108  N         42.5620   16.0110   43.0500 N.3   122  TYR122     -0.1241
    109  CA        41.5610   16.0410   41.9690 C.3   122  TYR122      0.1605
    110  C         41.7410   17.4350   41.3620 C.2   122  TYR122      0.2264
    111  O         41.3580   18.4530   41.9500 O.2   122  TYR122     -0.2867
    112  CB        40.1640   15.8730   42.5560 C.3   122  TYR122      0.0534
    113  CG        39.0140   15.6390   41.5770 C.ar  122  TYR122     -0.0201
    114  CD1       38.0710   14.6370   41.8150 C.ar  122  TYR122     -0.0009
    115  CD2       38.8340   16.4430   40.4530 C.ar  122  TYR122     -0.0009
    116  CE1       37.0000   14.4300   40.9620 C.ar  122  TYR122      0.0417
    117  CE2       37.7580   16.2330   39.5770 C.ar  122  TYR122      0.0417
    118  CZ        36.8520   15.2210   39.8430 C.ar  122  TYR122      0.1957
    119  OH        35.7660   14.9830   39.0190 O.3   122  TYR122     -0.2866
    120  N         40.5690   19.6960   38.6340 N.3   124  ASP124     -0.1239
    121  CA        39.2920   19.6600   37.9340 C.3   124  ASP124      0.1674
    122  C         39.2530   20.8310   36.9490 C.2   124  ASP124      0.2266
    123  O         38.8320   21.9300   37.2990 O.2   124  ASP124     -0.2867
    124  CB        38.2250   19.7900   39.0340 C.3   124  ASP124      0.1410
    125  CG        36.7930   19.7560   38.5280 C.2   124  ASP124      0.3668
    126  OD1       36.5270   19.1040   37.5020 O.co2 124  ASP124     -0.2456
    127  OD2       35.9350   20.3740   39.2300 O.co2 124  ASP124     -0.2456
    128  N         37.8090   22.8670   33.8710 N.3   126  TRP126     -0.1241
    129  CA        36.5480   23.0990   33.1620 C.3   126  TRP126      0.1605
    130  C         36.5410   24.5180   32.6420 C.2   126  TRP126      0.2264
    131  O         37.4100   25.3470   32.9890 O.2   126  TRP126     -0.2867
    132  CB        35.3000   22.7740   34.0070 C.3   126  TRP126      0.0550
    133  CG        35.3770   23.0930   35.4740 C.ar  126  TRP126      0.0003
    134  CD1       35.6710   22.2030   36.4870 C.ar  126  TRP126      0.0946
    135  CD2       35.1530   24.3690   36.1110 C.ar  126  TRP126      0.0152
    136  NE1       35.6090   22.8350   37.7100 N.ar  126  TRP126     -0.2442
    137  CE2       35.3080   24.1660   37.5080 C.ar  126  TRP126      0.0810
    138  CE3       34.7910   25.6480   35.6500 C.ar  126  TRP126      0.0012
    139  CZ2       35.1230   25.2120   38.4410 C.ar  126  TRP126      0.0191
    140  CZ3       34.6380   26.7000   36.5770 C.ar  126  TRP126      0.0001
    141  CH2       34.7890   26.4570   37.9630 C.ar  126  TRP126      0.0015
    142  N         30.6040   27.8400   32.9430 N.3   131  HIS131     -0.1241
    143  CA        30.0910   27.8170   34.2810 C.3   131  HIS131      0.1621
    144  C         29.3740   29.1170   34.6050 C.2   131  HIS131      0.2264
    145  O         28.2920   29.0810   35.1770 O.2   131  HIS131     -0.2867
    146  CB        31.1630   27.5090   35.2980 C.3   131  HIS131      0.0745
    147  CG        30.5910   26.9810   36.5710 C.ar  131  HIS131      0.0817
    148  ND1       30.7400   27.6200   37.7820 N.ar  131  HIS131     -0.2268
    149  CD2       29.7820   25.9220   36.7960 C.ar  131  HIS131      0.1154
    150  CE1       30.0990   26.9330   38.7100 C.ar  131  HIS131      0.1986
    151  NE2       29.5070   25.9010   38.1390 N.ar  131  HIS131     -0.2212
@<TRIPOS>BOND
     1    70    69    1
     2    70    71    2
     3    69    68    1
     4    69    72    1
     5    90    89    2
     6    89    88    1
     7    87    88    1
     8    99    98    2
     9    96    97    1
    10    88    91    1
    11    72    73    1
    12    98    97    1
    13    95    93   am
    14    82    81    2
    15    81    80    1
    16    97   100    1
    17    59    60    2
    18    59    58    1
    19    91    92    1
    20    73    75   ar
    21    73    74   ar
    22    93    92    1
    23    93    94    2
    24    80    79    1
    25    80    83    1
    26   130   131    2
    27   130   129    1
    28   100   101    1
    29    75    77   ar
    30    58    57    1
    31    58    61    1
    32   103   101   ar
    33   103   105   ar
    34    74    76   ar
    35   142   143    1
    36   129   128    1
    37   129   132    1
    38   101   102   ar
    39   105   106   ar
    40    61    62    1
    41    85    84    1
    42    83    84    1
    43    77    78   ar
    44    84    86    1
    45   132   133    1
    46    76    78   ar
    47   143   144    1
    48   143   146    1
    49   102   104   ar
    50   106   107    1
    51   106   104   ar
    52    63    62   ar
    53    63    65   ar
    54   144   145    2
    55    62    64   ar
    56   146   147    1
    57   133   135   ar
    58   133   134   ar
    59     7     6    1
    60    65    67   ar
    61    56    54    1
    62   138   135   ar
    63   138   140   ar
    64    64    66   ar
    65    52    51    1
    66    52    53    2
    67   135   137   ar
    68    51    54    1
    69    51    50    1
    70   134   136   ar
    71   147   149   ar
    72   147   148   ar
    73   140   141   ar
    74   149   151   ar
    75    67    66   ar
    76    54    55    1
    77     6     8    1
    78     6     5    1
    79   122   123    2
    80   122   121    1
    81     5     2    1
    82   126   125   ar
    83   137   136   ar
    84   137   139   ar
    85   148   150   ar
    86   121   120    1
    87   121   124    1
    88   141   139   ar
    89    48    47    1
    90   151   150   ar
    91   125   124    1
    92   125   127   ar
    93     2     3    1
    94     2     1    1
    95     3     4    2
    96    49    47    1
    97   119   118    1
    98    47    46    1
    99   117   118   ar
   100   117   115   ar
   101   118   116   ar
   102   115   113   ar
   103    46    43    1
   104    44    43    1
   105    44    45    2
   106    43    42    1
   107    15    14    1
   108   116   114   ar
   109    13    14    1
   110    13    10    1
   111    11    12    2
   112    11    10    1
   113   110   111    2
   114   110   109    1
   115   113   114   ar
   116   113   112    1
   117    14    16    1
   118    10     9    1
   119    41    39   ar
   120    41    40   ar
   121   109   112    1
   122   109   108    1
   123    39    37   ar
   124    40    38   ar
   125    25    23   ar
   126    25    26   ar
   127    28    26   ar
   128    28    30   ar
   129    23    22   ar
   130    37    36   ar
   131    26    24   ar
   132    38    36   ar
   133    30    29   ar
   134    36    35    1
   135    34    33    2
   136    22    24   ar
   137    22    21    1
   138    24    27   ar
   139    33    32    1
   140    29    27   ar
   141    35    32    1
   142    21    18    1
   143    32    31    1
   144    18    19    1
   145    18    17    1
   146    20    19    2
