@<TRIPOS>MOLECULE
tmp/1z24A00.pdb
 257 245 0 0 0
SMALL
GASTEIGER

@<TRIPOS>ATOM
      1  N         19.7670   48.6220   50.5640 N.3    27  TRP27      -0.1241
      2  CA        20.3680   47.3040   50.6780 C.3    27  TRP27       0.1605
      3  C         19.3670   46.2040   50.4660 C.2    27  TRP27       0.2264
      4  O         18.3210   46.1980   51.1200 O.2    27  TRP27      -0.2867
      5  CB        20.9560   47.1630   52.1170 C.3    27  TRP27       0.0550
      6  CG        22.1640   48.0070   52.3820 C.ar   27  TRP27       0.0003
      7  CD1       22.2080   49.2100   53.0520 C.ar   27  TRP27       0.0946
      8  CD2       23.5250   47.6940   51.9510 C.ar   27  TRP27       0.0152
      9  NE1       23.5140   49.6570   53.0600 N.ar   27  TRP27      -0.2442
     10  CE2       24.3560   48.7530   52.4310 C.ar   27  TRP27       0.0810
     11  CE3       24.1120   46.6450   51.2240 C.ar   27  TRP27       0.0012
     12  CZ2       25.7450   48.7980   52.2010 C.ar   27  TRP27       0.0191
     13  CZ3       25.5040   46.7460   50.9770 C.ar   27  TRP27       0.0001
     14  CH2       26.2800   47.8050   51.4350 C.ar   27  TRP27       0.0015
     15  N         18.3080   42.3000   50.6890 N.3    29  GLU29      -0.1245
     16  CA        18.6190   41.1710   51.5550 C.3    29  GLU29       0.1567
     17  C         18.7660   39.9270   50.6860 C.2    29  GLU29       0.2260
     18  O         17.7950   39.3180   50.3570 O.2    29  GLU29      -0.2867
     19  CB        17.4770   41.0160   52.5560 C.3    29  GLU29       0.0388
     20  CG        17.6390   39.7050   53.3360 C.3    29  GLU29       0.1160
     21  CD        16.5140   39.5640   54.2710 C.2    29  GLU29       0.3649
     22  OE1       16.4470   40.1830   55.3320 O.co2  29  GLU29      -0.2457
     23  OE2       15.5980   38.7660   53.7950 O.co2  29  GLU29      -0.2457
     24  N         14.3130   34.5310   60.6750 N.3    35  LEU35      -0.1245
     25  CA        13.8980   35.6160   61.5850 C.3    35  LEU35       0.1561
     26  C         12.3830   35.7260   61.5050 C.2    35  LEU35       0.2260
     27  O         11.8720   36.1090   60.4390 O.2    35  LEU35      -0.2867
     28  CB        14.6490   36.9270   61.2830 C.3    35  LEU35       0.0270
     29  CG        14.1590   38.1460   62.1040 C.3    35  LEU35       0.0019
     30  CD1       14.1890   37.8370   63.6240 C.3    35  LEU35       0.0001
     31  CD2       15.0000   39.3920   61.7720 C.3    35  LEU35       0.0001
     32  N          9.8420   37.6510   62.3070 N.3    37  ASN37      -0.1225
     33  CA         9.1410   38.7680   61.7630 C.3    37  ASN37       0.1785
     34  C          9.3190   38.9310   60.3170 C.2    37  ASN37       0.2597
     35  O          8.5560   39.6550   59.7400 O.2    37  ASN37      -0.2718
     36  CB         9.3600   40.1200   62.4690 C.3    37  ASN37       0.1169
     37  CG        10.8110   40.5980   62.3350 C.2    37  ASN37       0.2627
     38  OD1       11.4480   40.4730   61.2940 O.2    37  ASN37      -0.2716
     39  ND2       11.3000   41.3040   63.3430 N.am   37  ASN37      -0.0877
     40  N         10.3080   38.3310   59.7140 N.am   38  GLU38      -0.1979
     41  CA        10.3810   38.6310   58.2990 C.3    38  GLU38       0.1602
     42  C         10.4720   37.4330   57.3630 C.2    38  GLU38       0.2287
     43  O         10.7400   37.5170   56.1450 O.2    38  GLU38      -0.2864
     44  CB        11.4740   39.6390   58.1200 C.3    38  GLU38       0.0415
     45  CG        12.8780   38.9680   58.3670 C.3    38  GLU38       0.1163
     46  CD        13.9890   39.8910   57.8790 C.2    38  GLU38       0.3649
     47  OE1       14.7830   40.5000   58.5450 O.co2  38  GLU38      -0.2457
     48  OE2       14.0400   39.9360   56.6030 O.co2  38  GLU38      -0.2457
     49  N         12.8640   41.8220   49.9310 N.3    44  THR44      -0.1203
     50  CA        13.2070   42.6060   51.1110 C.3    44  THR44       0.1994
     51  C         14.3720   43.5770   50.9210 C.2    44  THR44       0.2618
     52  O         15.4790   43.1780   50.5910 O.2    44  THR44      -0.2717
     53  CB        13.5900   41.6530   52.2160 C.3    44  THR44       0.1784
     54  OG1       12.5430   40.8070   52.2930 O.3    44  THR44      -0.2211
     55  CG2       13.7100   42.3860   53.5670 C.3    44  THR44       0.0376
     56  N         14.1120   44.8640   51.1560 N.am   45  ILE45      -0.1965
     57  CA        15.1390   45.8530   51.0020 C.3    45  ILE45       0.1727
     58  C         15.0950   46.8680   52.1340 C.2    45  ILE45       0.2616
     59  O         14.0500   47.3500   52.5620 O.2    45  ILE45      -0.2715
     60  CB        14.8130   46.5790   49.7220 C.3    45  ILE45       0.0290
     61  CG1       14.5890   45.5860   48.5900 C.3    45  ILE45       0.0022
     62  CG2       15.8510   47.6780   49.4170 C.3    45  ILE45       0.0023
     63  CD1       14.2350   46.2850   47.2870 C.3    45  ILE45       0.0001
     64  N         16.2480   47.2070   52.6320 N.am   46  ALA46      -0.1977
     65  CA        16.3490   48.1940   53.6930 C.3    46  ALA46       0.1597
     66  C         17.0310   49.4020   53.0920 C.2    46  ALA46       0.2287
     67  O         18.1380   49.2700   52.5480 O.2    46  ALA46      -0.2864
     68  CB        17.1870   47.6700   54.8680 C.3    46  ALA46       0.0319
     69  N         18.5960   53.1560   53.7750 N.3    48  TYR48      -0.1241
     70  CA        19.0820   54.0840   54.7540 C.3    48  TYR48       0.1605
     71  C         19.4790   55.3280   54.0260 C.2    48  TYR48       0.2264
     72  O         20.1870   55.2270   53.0460 O.2    48  TYR48      -0.2867
     73  CB        20.3680   53.5220   55.4530 C.3    48  TYR48       0.0534
     74  CG        20.1600   52.1210   56.0960 C.ar   48  TYR48      -0.0201
     75  CD1       18.9620   51.8140   56.7480 C.ar   48  TYR48      -0.0009
     76  CD2       21.1030   51.0940   55.9900 C.ar   48  TYR48      -0.0009
     77  CE1       18.7320   50.5670   57.3270 C.ar   48  TYR48       0.0417
     78  CE2       20.9050   49.8400   56.5770 C.ar   48  TYR48       0.0417
     79  CZ        19.7110   49.5780   57.2600 C.ar   48  TYR48       0.1957
     80  OH        19.4580   48.3740   57.8900 O.3    48  TYR48      -0.2866
     81  N         12.1350   50.5160   55.4870 N.3    59  ASN59      -0.1225
     82  CA        12.2360   49.1020   55.2340 C.3    59  ASN59       0.1785
     83  C         10.9680   48.5930   54.5620 C.2    59  ASN59       0.2598
     84  O          9.8340   48.9770   54.9090 O.2    59  ASN59      -0.2718
     85  CB        12.2700   48.2970   56.5570 C.3    59  ASN59       0.1169
     86  CG        13.5750   48.1770   57.3300 C.2    59  ASN59       0.2627
     87  OD1       14.7100   48.3310   56.7680 O.2    59  ASN59      -0.2716
     88  ND2       13.3980   47.9080   58.6950 N.am   59  ASN59      -0.0877
     89  N         11.1420   47.6900   53.6160 N.am   60  SER60      -0.1938
     90  CA        10.0100   47.1410   52.9610 C.3    60  SER60       0.2055
     91  C         10.2200   45.7680   52.4020 C.2    60  SER60       0.2643
     92  O         11.3140   45.3180   52.1060 O.2    60  SER60      -0.2714
     93  CB         9.4950   48.0360   51.8180 C.3    60  SER60       0.2130
     94  OG        10.2770   47.9120   50.6220 O.3    60  SER60      -0.2179
     95  N          9.0960   45.1270   52.2290 N.am   61  PHE61      -0.1973
     96  CA         9.0230   43.8210   51.6590 C.3    61  PHE61       0.1639
     97  C          7.6270   43.6150   51.1320 C.2    61  PHE61       0.2290
     98  O          6.7200   44.4220   51.3690 O.2    61  PHE61      -0.2864
     99  CB         9.5890   42.6790   52.4570 C.3    61  PHE61       0.0560
    100  CG         8.9610   42.4060   53.7960 C.ar   61  PHE61      -0.0200
    101  CD1        7.6050   42.6550   54.0760 C.ar   61  PHE61      -0.0042
    102  CD2        9.7460   41.8280   54.7960 C.ar   61  PHE61      -0.0042
    103  CE1        7.0420   42.3530   55.3170 C.ar   61  PHE61      -0.0003
    104  CE2        9.1920   41.4980   56.0420 C.ar   61  PHE61      -0.0003
    105  CZ         7.8370   41.7630   56.3170 C.ar   61  PHE61      -0.0000
    106  N          4.5390   45.8700   52.4150 N.3    68  GLU68      -0.1245
    107  CA         4.5690   46.3750   53.7700 C.3    68  GLU68       0.1567
    108  C          5.8700   47.1110   54.0590 C.2    68  GLU68       0.2260
    109  O          7.0040   46.6890   53.6840 O.2    68  GLU68      -0.2867
    110  CB         4.3160   45.3000   54.7990 C.3    68  GLU68       0.0388
    111  CG         3.0030   44.6240   54.5190 C.3    68  GLU68       0.1160
    112  CD         2.8380   43.4200   55.4010 C.2    68  GLU68       0.3649
    113  OE1        3.6100   43.1550   56.2990 O.co2  68  GLU68      -0.2457
    114  OE2        1.8140   42.6860   55.1020 O.co2  68  GLU68      -0.2457
    115  N          8.0980   50.0690   56.8290 N.3    70  MET70      -0.1245
    116  CA         8.3220   50.6790   58.1310 C.3    70  MET70       0.1570
    117  C          9.2330   51.8550   57.9590 C.2    70  MET70       0.2261
    118  O         10.2260   51.7710   57.2290 O.2    70  MET70      -0.2867
    119  CB         9.2010   49.7490   58.9840 C.3    70  MET70       0.0387
    120  CG         8.6110   48.4060   59.2600 C.3    70  MET70       0.0595
    121  SD         9.8320   47.2070   59.8660 S.3    70  MET70      -0.1393
    122  CE        10.0210   47.5980   61.5850 C.3    70  MET70       0.0692
    123  N         24.5690   50.1610   64.7510 N.3    88  TYR88      -0.1241
    124  CA        23.5780   51.2100   64.6620 C.3    88  TYR88       0.1605
    125  C         22.2300   50.8280   65.2490 C.2    88  TYR88       0.2264
    126  O         21.8870   49.6620   65.4550 O.2    88  TYR88      -0.2867
    127  CB        23.5330   51.7660   63.1980 C.3    88  TYR88       0.0534
    128  CG        23.0640   50.7680   62.1790 C.ar   88  TYR88      -0.0201
    129  CD1       21.7060   50.6490   61.8390 C.ar   88  TYR88      -0.0009
    130  CD2       23.9840   49.8840   61.6020 C.ar   88  TYR88      -0.0009
    131  CE1       21.2520   49.7380   60.8740 C.ar   88  TYR88       0.0417
    132  CE2       23.5560   48.9520   60.6560 C.ar   88  TYR88       0.0417
    133  CZ        22.2060   48.8890   60.2970 C.ar   88  TYR88       0.1957
    134  OH        21.8300   47.9370   59.3810 O.3    88  TYR88      -0.2866
    135  N         17.9890   51.4140   65.0110 N.3    90  MET90      -0.1245
    136  CA        16.8390   51.7420   64.2050 C.3    90  MET90       0.1570
    137  C         15.6850   51.8160   65.1660 C.2    90  MET90       0.2261
    138  O         15.4310   50.8740   65.9000 O.2    90  MET90      -0.2867
    139  CB        16.5920   50.6670   63.1800 C.3    90  MET90       0.0387
    140  CG        17.7760   50.6100   62.2170 C.3    90  MET90       0.0595
    141  SD        17.3590   49.4950   60.8410 S.3    90  MET90      -0.1393
    142  CE        17.2640   47.8370   61.6440 C.3    90  MET90       0.0692
    143  N          5.2140   51.9310   67.0250 N.3    94  PHE94      -0.1241
    144  CA         3.9510   51.3440   66.6530 C.3    94  PHE94       0.1605
    145  C          3.0710   51.9200   67.7030 C.2    94  PHE94       0.2264
    146  O          3.0670   51.3870   68.8210 O.2    94  PHE94      -0.2867
    147  CB         4.0620   49.8590   66.8520 C.3    94  PHE94       0.0534
    148  CG         5.1470   49.3960   65.9820 C.ar   94  PHE94      -0.0203
    149  CD1        6.4250   49.3150   66.5340 C.ar   94  PHE94      -0.0042
    150  CD2        4.9140   49.0810   64.6380 C.ar   94  PHE94      -0.0042
    151  CE1        7.4970   48.8790   65.7540 C.ar   94  PHE94      -0.0003
    152  CE2        5.9830   48.6390   63.8490 C.ar   94  PHE94      -0.0003
    153  CZ         7.2610   48.5490   64.4150 C.ar   94  PHE94      -0.0000
    154  N          4.2030   51.7500   71.3140 N.3    97  ARG97      -0.1245
    155  CA         5.2950   50.8320   71.4110 C.3    97  ARG97       0.1563
    156  C          6.4740   51.3600   70.6170 C.2    97  ARG97       0.2260
    157  O          6.3540   51.7080   69.4330 O.2    97  ARG97      -0.2867
    158  CB         4.9010   49.4340   70.9450 C.3    97  ARG97       0.0307
    159  CG         6.0910   48.4910   71.0100 C.3    97  ARG97       0.0489
    160  CD         5.5710   47.0850   70.8560 C.3    97  ARG97       0.2205
    161  NE         4.8330   47.0060   69.6030 N.pl3  97  ARG97      -0.0865
    162  CZ         5.3240   46.4780   68.5080 C.cat  97  ARG97       0.5346
    163  NH1        6.5540   45.9640   68.4990 N.pl3  97  ARG97       0.1354
    164  NH2        4.5840   46.4530   67.3870 N.pl3  97  ARG97       0.1354
    165  N         10.3720   50.5370   69.4310 N.3    99  VAL99      -0.1245
    166  CA        11.3590   49.5010   69.2110 C.3    99  VAL99       0.1561
    167  C         12.7290   50.0960   68.8070 C.2    99  VAL99       0.2260
    168  O         12.8150   51.0210   67.9890 O.2    99  VAL99      -0.2867
    169  CB        10.7410   48.6210   68.1420 C.3    99  VAL99       0.0252
    170  CG1       11.8030   47.7330   67.5560 C.3    99  VAL99       0.0019
    171  CG2        9.5590   47.8090   68.7450 C.3    99  VAL99       0.0019
    172  N         16.0710   48.5970   67.3540 N.3   101  LEU101     -0.1231
    173  CA        16.8110   47.4930   66.7560 C.3   101  LEU101      0.1693
    174  C         18.2720   47.8420   66.5690 C.2   101  LEU101      0.2592
    175  O         18.6390   48.9620   66.1400 O.2   101  LEU101     -0.2718
    176  CB        16.2130   46.9340   65.4550 C.3   101  LEU101      0.0284
    177  CG        14.6940   46.6840   65.5790 C.3   101  LEU101      0.0019
    178  CD1       14.1530   46.1930   64.2430 C.3   101  LEU101      0.0001
    179  CD2       14.4270   45.5820   66.6360 C.3   101  LEU101      0.0001
    180  N         19.1060   46.8410   66.8690 N.am  102  VAL102     -0.1966
    181  CA        20.5020   47.0520   66.7770 C.3   102  VAL102      0.1712
    182  C         21.3060   46.0580   65.9740 C.2   102  VAL102      0.2458
    183  O         21.8410   45.1170   66.5490 O.2   102  VAL102     -0.2730
    184  CB        21.0860   47.1480   68.2350 C.3   102  VAL102      0.0289
    185  CG1       22.5720   47.4990   68.1970 C.3   102  VAL102      0.0023
    186  CG2       20.3870   48.1580   69.1280 C.3   102  VAL102      0.0023
    187  N         21.4540   46.2850   64.6810 N.am  103  PRO103     -0.2727
    188  CA        22.2610   45.3670   63.9100 C.3   103  PRO103      0.1402
    189  C         23.7590   45.6660   64.0630 C.2   103  PRO103      0.2269
    190  O         24.2040   46.8000   64.1700 O.2   103  PRO103     -0.2865
    191  CB        21.9000   45.6340   62.4570 C.3   103  PRO103      0.0296
    192  CG        20.7390   46.6280   62.4830 C.3   103  PRO103      0.0237
    193  CD        20.8600   47.3410   63.8110 C.3   103  PRO103      0.0939
    194  N         25.6850   41.7080   58.2280 N.3   116  ASN116     -0.1240
    195  CA        25.0690   42.1760   59.4830 C.3   116  ASN116      0.1653
    196  C         24.6840   41.0270   60.3870 C.2   116  ASN116      0.2266
    197  O         24.4050   39.9300   59.9140 O.2   116  ASN116     -0.2867
    198  CB        23.8460   43.0750   59.1880 C.3   116  ASN116      0.1155
    199  CG        24.2610   44.4730   58.7670 C.2   116  ASN116      0.2627
    200  OD1       23.4810   45.4060   58.8090 O.2   116  ASN116     -0.2716
    201  ND2       25.4470   44.6070   58.3770 N.am  116  ASN116     -0.0877
    202  N         23.2640   39.8190   64.7480 N.3   118  ASN118     -0.1240
    203  CA        22.7600   40.1510   66.0720 C.3   118  ASN118      0.1653
    204  C         22.6890   38.8560   66.8760 C.2   118  ASN118      0.2266
    205  O         22.6880   37.7900   66.2970 O.2   118  ASN118     -0.2867
    206  CB        21.5790   41.0840   66.2790 C.3   118  ASN118      0.1155
    207  CG        20.2940   40.3350   66.5450 C.2   118  ASN118      0.2627
    208  OD1       19.8620   39.4760   65.7600 O.2   118  ASN118     -0.2716
    209  ND2       19.6520   40.7160   67.6200 N.am  118  ASN118     -0.0877
    210  N         20.6710   37.5730   70.4030 N.3   120  ASP120     -0.1239
    211  CA        19.6300   37.8540   71.3790 C.3   120  ASP120      0.1674
    212  C         19.6400   36.8060   72.4810 C.2   120  ASP120      0.2266
    213  O         19.3290   35.6300   72.2340 O.2   120  ASP120     -0.2867
    214  CB        18.3280   37.7810   70.5700 C.3   120  ASP120      0.1410
    215  CG        17.1150   38.2920   71.3140 C.2   120  ASP120      0.3668
    216  OD1       16.2400   38.9370   70.7590 O.co2 120  ASP120     -0.2456
    217  OD2       17.0800   38.0300   72.5960 O.co2 120  ASP120     -0.2456
    218  N         20.9030   35.9980   64.5220 N.3   131  HIS131     -0.1241
    219  CA        20.3220   36.4790   63.2880 C.3   131  HIS131      0.1621
    220  C         21.4170   37.0270   62.3900 C.2   131  HIS131      0.2264
    221  O         22.3700   37.6190   62.8850 O.2   131  HIS131     -0.2867
    222  CB        19.2170   37.5050   63.4310 C.3   131  HIS131      0.0745
    223  CG        18.2180   36.9800   64.3810 C.ar  131  HIS131      0.0817
    224  ND1       18.1560   37.3910   65.7080 N.ar  131  HIS131     -0.2268
    225  CD2       17.2570   36.0420   64.1920 C.ar  131  HIS131      0.1154
    226  CE1       17.1290   36.6730   66.2740 C.ar  131  HIS131      0.1986
    227  NE2       16.5720   35.8650   65.3890 N.ar  131  HIS131     -0.2212
    228  N         22.3390   38.6600   58.1040 N.3   133  TRP133     -0.1241
    229  CA        21.8540   39.0590   56.7850 C.3   133  TRP133      0.1605
    230  C         22.9430   39.3750   55.7950 C.2   133  TRP133      0.2264
    231  O         23.8990   40.1030   56.1060 O.2   133  TRP133     -0.2867
    232  CB        21.1520   40.4200   56.8850 C.3   133  TRP133      0.0550
    233  CG        19.9700   40.4710   57.7570 C.ar  133  TRP133      0.0003
    234  CD1       18.6520   40.4530   57.3510 C.ar  133  TRP133      0.0946
    235  CD2       19.9930   40.5790   59.2240 C.ar  133  TRP133      0.0152
    236  NE1       17.8450   40.5450   58.5080 N.ar  133  TRP133     -0.2442
    237  CE2       18.6190   40.6040   59.6610 C.ar  133  TRP133      0.0810
    238  CE3       21.0440   40.6170   60.1690 C.ar  133  TRP133      0.0012
    239  CZ2       18.2650   40.7020   61.0570 C.ar  133  TRP133      0.0191
    240  CZ3       20.7480   40.6920   61.5180 C.ar  133  TRP133      0.0001
    241  CH2       19.3710   40.7530   61.9650 C.ar  133  TRP133      0.0015
    242  N         23.7690   41.4070   52.7890 N.3   135  LEU135     -0.1245
    243  CA        23.1880   42.5230   52.0830 C.3   135  LEU135      0.1561
    244  C         24.0160   42.9960   50.9050 C.2   135  LEU135      0.2260
    245  O         25.2450   43.0350   50.9640 O.2   135  LEU135     -0.2867
    246  CB        23.0840   43.7710   53.0150 C.3   135  LEU135      0.0270
    247  CG        22.4220   43.4520   54.3440 C.3   135  LEU135      0.0019
    248  CD1       22.5130   44.7230   55.1430 C.3   135  LEU135      0.0001
    249  CD2       20.9750   43.1650   54.0350 C.3   135  LEU135      0.0001
    250  N          3.5310   49.4720   58.4040 N.3   183  LEU183     -0.1245
    251  CA         3.4890   48.7470   59.6460 C.3   183  LEU183      0.1561
    252  C          3.6830   49.6790   60.8180 C.2   183  LEU183      0.2260
    253  O          3.1990   49.4170   61.8940 O.2   183  LEU183     -0.2867
    254  CB         4.5990   47.6700   59.7060 C.3   183  LEU183      0.0270
    255  CG         4.4400   46.6200   58.6070 C.3   183  LEU183      0.0019
    256  CD1        5.6840   45.8550   58.5160 C.3   183  LEU183      0.0001
    257  CD2        3.3550   45.6390   58.9740 C.3   183  LEU183      0.0001
@<TRIPOS>BOND
     1    63    61    1
     2    61    60    1
     3    62    60    1
     4    60    57    1
     5    49    50    1
     6    18    17    2
     7     3     2    1
     8     3     4    2
     9     1     2    1
    10    52    51    2
    11    94    93    1
    12     2     5    1
    13    17    16    1
    14    15    16    1
    15   244   245    2
    16   244   243    1
    17    51    50    1
    18    51    56   am
    19    13    11   ar
    20    13    14   ar
    21    57    56    1
    22    57    58    1
    23    50    53    1
    24    97    98    2
    25    97    96    1
    26    11     8   ar
    27    14    12   ar
    28    16    19    1
    29    96    95    1
    30    96    99    1
    31    93    90    1
    32     8     6   ar
    33     8    10   ar
    34   243   242    1
    35   243   246    1
    36    92    91    2
    37     5     6    1
    38    58    59    2
    39    58    64   am
    40    12    10   ar
    41    53    54    1
    42    53    55    1
    43    95    91   am
    44     6     7   ar
    45    91    90    1
    46   106   107    1
    47    10     9   ar
    48    99   100    1
    49    67    66    2
    50    19    20    1
    51    64    65    1
    52    90    89    1
    53   246   247    1
    54    72    71    2
    55     7     9   ar
    56    66    65    1
    57    20    21    1
    58    89    83   am
    59   109   108    2
    60    65    68    1
    61   107   108    1
    62   107   110    1
    63    69    70    1
    64    23    21   ar
    65   100   101   ar
    66   100   102   ar
    67    71    70    1
    68   249   247    1
    69   101   103   ar
    70    21    22   ar
    71   247   248    1
    72   111   110    1
    73   111   112    1
    74    83    84    2
    75    83    82    1
    76    70    73    1
    77   102   104   ar
    78   114   112   ar
    79    82    81    1
    80    82    85    1
    81   103   105   ar
    82   112   113   ar
    83    73    74    1
    84   230   231    2
    85   230   229    1
    86    76    74   ar
    87    76    78   ar
    88   104   105   ar
    89    74    75   ar
    90    43    42    2
    91    85    86    1
    92    78    79   ar
    93    48    46   ar
    94    75    77   ar
    95    87    86    2
    96   229   232    1
    97   229   228    1
    98   115   116    1
    99   232   233    1
   100   118   117    2
   101    79    77   ar
   102    79    80    1
   103    86    88   am
   104   234   233   ar
   105   234   236   ar
   106    42    41    1
   107   233   235   ar
   108    46    45    1
   109    46    47   ar
   110   117   116    1
   111    44    41    1
   112    44    45    1
   113   116   119    1
   114   194   195    1
   115    41    40    1
   116   201   199   am
   117   250   251    1
   118   236   237   ar
   119   256   255    1
   120   255   257    1
   121   255   254    1
   122   199   200    2
   123   199   198    1
   124   119   120    1
   125   198   195    1
   126   235   237   ar
   127   235   238   ar
   128   120   121    1
   129   134   133    1
   130   195   196    1
   131   251   254    1
   132   251   252    1
   133   237   239   ar
   134    40    34   am
   135    35    34    2
   136   121   122    1
   137   197   196    2
   138   238   240   ar
   139   133   132   ar
   140   133   131   ar
   141    34    33    1
   142    27    26    2
   143   132   130   ar
   144    24    25    1
   145   252   253    2
   146   141   142    1
   147   141   140    1
   148   131   129   ar
   149   239   241   ar
   150    28    25    1
   151    28    29    1
   152    38    37    2
   153    26    25    1
   154   240   241   ar
   155   130   128   ar
   156    33    32    1
   157    33    36    1
   158    31    29    1
   159   129   128   ar
   160    29    30    1
   161   128   127    1
   162   140   139    1
   163    37    36    1
   164    37    39   am
   165   220   221    2
   166   220   219    1
   167   191   192    1
   168   191   188    1
   169   192   193    1
   170   139   136    1
   171   127   124    1
   172   219   222    1
   173   219   218    1
   174   222   223    1
   175   193   187    1
   176   152   153   ar
   177   152   150   ar
   178   188   189    1
   179   188   187    1
   180   189   190    2
   181   225   223   ar
   182   225   227   ar
   183   136   135    1
   184   136   137    1
   185   178   177    1
   186   223   224   ar
   187   153   151   ar
   188   150   148   ar
   189   124   123    1
   190   124   125    1
   191   187   182   am
   192   202   203    1
   193   137   138    2
   194   125   126    2
   195   227   226   ar
   196   176   177    1
   197   176   173    1
   198   177   179    1
   199   224   226   ar
   200   151   149   ar
   201   208   207    2
   202   182   183    2
   203   182   181    1
   204   148   149   ar
   205   148   147    1
   206   203   206    1
   207   203   204    1
   208   175   174    2
   209   206   207    1
   210   205   204    2
   211   207   209   am
   212   174   173    1
   213   174   180   am
   214   144   147    1
   215   144   143    1
   216   144   145    1
   217   173   172    1
   218   181   180    1
   219   181   184    1
   220   164   162    1
   221   170   169    1
   222   145   146    2
   223   168   167    2
   224   169   171    1
   225   169   166    1
   226   185   184    1
   227   184   186    1
   228   163   162    1
   229   162   161    2
   230   167   166    1
   231   166   165    1
   232   157   156    2
   233   161   160    1
   234   210   211    1
   235   214   215    1
   236   214   211    1
   237   156   155    1
   238   216   215   ar
   239   160   159    1
   240   158   159    1
   241   158   155    1
   242   215   217   ar
   243   154   155    1
   244   211   212    1
   245   213   212    2
