@<TRIPOS>MOLECULE
tmp/1z2aA00.pdb
 177 172 0 0 0
SMALL
GASTEIGER

@<TRIPOS>ATOM
      1  N          9.5940   -0.7490   10.9860 N.3    11  GLY11      -0.1210
      2  CA        10.7170    0.0840   10.5490 C.3    11  GLY11       0.1956
      3  C         10.3280    1.3160    9.7450 C.2    11  GLY11       0.2612
      4  O          9.3450    1.2980    8.9970 O.2    11  GLY11      -0.2717
      5  N         11.0900    2.3960    9.9280 N.am   12  ALA12      -0.1965
      6  CA        10.9750    3.6400    9.1440 C.3    12  ALA12       0.1728
      7  C          9.7280    4.5110    9.4280 C.2    12  ALA12       0.2616
      8  O          9.5030    5.5230    8.7530 O.2    12  ALA12      -0.2715
      9  CB        11.1230    3.3520    7.6320 C.3    12  ALA12       0.0334
     10  N          8.9300    4.1270   10.4230 N.am   13  VAL13      -0.1963
     11  CA         7.7620    4.9390   10.8230 C.3    13  VAL13       0.1727
     12  C          8.1270    6.2770   11.4850 C.2    13  VAL13       0.2617
     13  O          7.2950    7.1810   11.5390 O.2    13  VAL13      -0.2715
     14  CB         6.7290    4.1650   11.7040 C.3    13  VAL13       0.0290
     15  CG1        6.1120    3.0180   10.9320 C.3    13  VAL13       0.0023
     16  CG2        7.3480    3.6600   13.0120 C.3    13  VAL13       0.0023
     17  N          9.3620    6.3960   11.9740 N.am   14  GLY14      -0.1940
     18  CA         9.8530    7.6260   12.5950 C.3    14  GLY14       0.2014
     19  C         10.0820    7.5470   14.0980 C.2    14  GLY14       0.2639
     20  O         10.0520    8.5730   14.7830 O.2    14  GLY14      -0.2714
     21  N         10.3240    6.3400   14.6120 N.am   15  LYS15      -0.1963
     22  CA        10.4840    6.1250   16.0720 C.3    15  LYS15       0.1728
     23  C         11.7240    6.8280   16.6390 C.2    15  LYS15       0.2617
     24  O         11.6330    7.5800   17.6080 O.2    15  LYS15      -0.2715
     25  CB        10.5150    4.6240   16.4100 C.3    15  LYS15       0.0311
     26  CG         9.2760    3.8490   15.9540 C.3    15  LYS15       0.0038
     27  CD         9.2830    2.3980   16.4380 C.3    15  LYS15       0.0206
     28  CE        10.4460    1.5640   15.8800 C.3    15  LYS15       0.1093
     29  NZ        10.5160    1.6330   14.3980 N.3    15  LYS15      -0.1314
     30  N         12.8830    6.5840   16.0300 N.am   16  SER16      -0.1936
     31  CA        14.1330    7.2150   16.4710 C.3    16  SER16       0.2055
     32  C         14.0630    8.7290   16.2940 C.2    16  SER16       0.2643
     33  O         14.5450    9.4920   17.1480 O.2    16  SER16      -0.2714
     34  CB        15.3320    6.6460   15.7000 C.3    16  SER16       0.2130
     35  OG        15.4070    5.2310   15.8410 O.3    16  SER16      -0.2179
     36  N         13.4490    9.1630   15.1920 N.am   17  SER17      -0.1949
     37  CA        13.2430   10.5970   14.9540 C.3    17  SER17       0.1924
     38  C         12.4240   11.2240   16.0880 C.2    17  SER17       0.2314
     39  O         12.7660   12.3000   16.5880 O.2    17  SER17      -0.2863
     40  CB        12.5550   10.8340   13.6080 C.3    17  SER17       0.2116
     41  OG        13.4340   10.5950   12.5160 O.3    17  SER17      -0.2180
     42  N         15.6160   17.6450   14.1400 N.3    27  PHE27      -0.1227
     43  CA        15.1180   16.7920   13.0620 C.3    27  PHE27       0.1736
     44  C         16.0940   16.8900   11.8820 C.2    27  PHE27       0.2596
     45  O         16.2350   17.9500   11.2650 O.2    27  PHE27      -0.2718
     46  CB        13.7010   17.1970   12.6250 C.3    27  PHE27       0.0547
     47  CG        13.1030   16.2890   11.5780 C.ar   27  PHE27      -0.0202
     48  CD1       12.6000   15.0310   11.9270 C.ar   27  PHE27      -0.0042
     49  CD2       13.0450   16.6860   10.2430 C.ar   27  PHE27      -0.0042
     50  CE1       12.0590   14.1830   10.9610 C.ar   27  PHE27      -0.0003
     51  CE2       12.5070   15.8430    9.2680 C.ar   27  PHE27      -0.0003
     52  CZ        12.0100   14.5930    9.6280 C.ar   27  PHE27      -0.0000
     53  N         16.7630   15.7820   11.5720 N.am   28  THR28      -0.1939
     54  CA        17.7140   15.7530   10.4470 C.3    28  THR28       0.2028
     55  C         17.0950   15.1380    9.1850 C.2    28  THR28       0.2642
     56  O         15.9960   14.5760    9.2350 O.2    28  THR28      -0.2714
     57  CB        19.0250   15.0270   10.8240 C.3    28  THR28       0.1808
     58  OG1       18.7340   13.6830   11.2260 O.3    28  THR28      -0.2208
     59  CG2       19.7240   15.7530   11.9660 C.3    28  THR28       0.0379
     60  N         17.8060   15.2440    8.0600 N.am   29  LYS29      -0.1963
     61  CA        17.2840   14.8060    6.7590 C.3    29  LYS29       0.1728
     62  C         17.6370   13.3660    6.3620 C.2    29  LYS29       0.2616
     63  O         17.2340   12.9010    5.2890 O.2    29  LYS29      -0.2715
     64  CB        17.6760   15.8020    5.6530 C.3    29  LYS29       0.0311
     65  CG        16.7720   17.0300    5.6250 C.3    29  LYS29       0.0038
     66  CD        17.1210   18.0440    4.5330 C.3    29  LYS29       0.0206
     67  CE        15.9290   18.9730    4.3040 C.3    29  LYS29       0.1093
     68  NZ        16.2060   20.1370    3.4050 N.3    29  LYS29      -0.1314
     69  N         18.3480   12.6540    7.2340 N.am   30  ASP30      -0.1957
     70  CA        18.8040   11.2850    6.9490 C.3    30  ASP30       0.1840
     71  C         17.6590   10.3250    6.6150 C.2    30  ASP30       0.2622
     72  O         16.5500   10.4780    7.1230 O.2    30  ASP30      -0.2715
     73  CB        19.6040   10.7330    8.1320 C.3    30  ASP30       0.1450
     74  CG        20.7780   11.6200    8.5110 C.2    30  ASP30       0.3671
     75  OD1       21.9220   11.1330    8.5180 O.co2  30  ASP30      -0.2456
     76  OD2       20.5570   12.8080    8.8000 O.co2  30  ASP30      -0.2456
     77  N         17.9330    9.3430    5.7540 N.am   31  TYR31      -0.1960
     78  CA        16.9470    8.3090    5.4240 C.3    31  TYR31       0.1771
     79  C         16.6810    7.3540    6.5970 C.2    31  TYR31       0.2619
     80  O         15.6110    6.7500    6.6870 O.2    31  TYR31      -0.2715
     81  CB        17.3650    7.5260    4.1650 C.3    31  TYR31       0.0574
     82  CG        17.2620    8.3440    2.8910 C.ar   31  TYR31      -0.0198
     83  CD1       18.3830    8.9630    2.3460 C.ar   31  TYR31      -0.0009
     84  CD2       16.0390    8.5090    2.2410 C.ar   31  TYR31      -0.0009
     85  CE1       18.2950    9.7260    1.1730 C.ar   31  TYR31       0.0417
     86  CE2       15.9380    9.2750    1.0670 C.ar   31  TYR31       0.0417
     87  CZ        17.0680    9.8790    0.5460 C.ar   31  TYR31       0.1957
     88  OH        16.9770   10.6320   -0.6120 O.3    31  TYR31      -0.2866
     89  N         17.6630    7.2200    7.4830 N.am   32  LYS32      -0.1963
     90  CA        17.5390    6.3850    8.6830 C.3    32  LYS32       0.1728
     91  C         18.2710    7.0660    9.8340 C.2    32  LYS32       0.2616
     92  O         19.4090    7.5040    9.6640 O.2    32  LYS32      -0.2715
     93  CB        18.1170    4.9900    8.4320 C.3    32  LYS32       0.0311
     94  CG        18.0040    4.0340    9.5890 C.3    32  LYS32       0.0038
     95  CD        16.5900    3.7500    9.9890 C.3    32  LYS32       0.0206
     96  CE        16.4840    2.5030   10.8230 C.3    32  LYS32       0.1093
     97  NZ        15.8050    2.8500   12.0590 N.3    32  LYS32      -0.1314
     98  N         17.6220    7.1550   10.9950 N.am   33  LYS33      -0.1977
     99  CA        18.2130    7.8290   12.1630 C.3    33  LYS33       0.1596
    100  C         18.8180    6.8310   13.1550 C.2    33  LYS33       0.2287
    101  O         18.2750    5.7460   13.3650 O.2    33  LYS33      -0.2864
    102  CB        17.1670    8.6980   12.8780 C.3    33  LYS33       0.0298
    103  CG        16.3100    9.5630   11.9500 C.3    33  LYS33       0.0038
    104  CD        17.0510   10.7770   11.4790 C.3    33  LYS33       0.0206
    105  CE        16.3360   11.4510   10.3130 C.3    33  LYS33       0.1093
    106  NZ        15.3520   12.4670   10.7640 N.3    33  LYS33      -0.1314
    107  N         14.9140    1.1390   19.7260 N.3    58  THR58      -0.1218
    108  CA        14.9940   -0.2500   19.2550 C.3    58  THR58       0.1862
    109  C         16.2540   -0.5930   18.4350 C.2    58  THR58       0.2287
    110  O         16.5140   -1.7760   18.1490 O.2    58  THR58      -0.2866
    111  CB        13.7570   -0.5990   18.4050 C.3    58  THR58       0.1770
    112  OG1       13.7710   -1.9960   18.0980 O.3    58  THR58      -0.2211
    113  CG2       13.7700    0.1840   17.1100 C.3    58  THR58       0.0375
    114  N         14.0660   -4.2060   14.5570 N.3    62  GLU62      -0.1245
    115  CA        12.7580   -4.6690   14.0840 C.3    62  GLU62       0.1567
    116  C         12.7910   -5.1420   12.6190 C.2    62  GLU62       0.2260
    117  O         11.9210   -5.8980   12.1940 O.2    62  GLU62      -0.2867
    118  CB        11.6630   -3.6070   14.3020 C.3    62  GLU62       0.0388
    119  CG        11.7810   -2.3330   13.4470 C.3    62  GLU62       0.1160
    120  CD        12.6570   -1.2560   14.0790 C.2    62  GLU62       0.3649
    121  OE1       13.4840   -1.5870   14.9570 O.co2  62  GLU62      -0.2457
    122  OE2       12.5190   -0.0750   13.6920 O.co2  62  GLU62      -0.2457
    123  N          2.2070    8.9010   12.7150 N.3   114  ASN114     -0.1225
    124  CA         3.2650    9.8380   12.3280 C.3   114  ASN114      0.1785
    125  C          3.2120   10.1680   10.8280 C.2   114  ASN114      0.2597
    126  O          2.5070    9.4940   10.0640 O.2   114  ASN114     -0.2718
    127  CB         4.6440    9.2600   12.7040 C.3   114  ASN114      0.1169
    128  CG         5.7500   10.3070   12.7150 C.2   114  ASN114      0.2627
    129  OD1        6.9200    9.9990   12.4430 O.2   114  ASN114     -0.2716
    130  ND2        5.3960   11.5390   13.0350 N.am  114  ASN114     -0.0877
    131  N          3.9680   11.1960   10.4330 N.am  115  LYS115     -0.1980
    132  CA         4.1220   11.6340    9.0290 C.3   115  LYS115      0.1596
    133  C          2.8330   12.2180    8.4470 C.2   115  LYS115      0.2287
    134  O          2.5620   12.0980    7.2440 O.2   115  LYS115     -0.2864
    135  CB         4.6820   10.5100    8.1330 C.3   115  LYS115      0.0298
    136  CG         6.0070    9.9290    8.6160 C.3   115  LYS115      0.0038
    137  CD         6.7320    9.1840    7.5150 C.3   115  LYS115      0.0206
    138  CE         7.8290    8.2870    8.0810 C.3   115  LYS115      0.1093
    139  NZ         8.6640    7.6500    7.0100 N.3   115  LYS115     -0.1314
    140  N          2.2060   15.1160    7.8270 N.3   117  ASP117     -0.1225
    141  CA         2.5580   16.1580    6.8510 C.3   117  ASP117      0.1805
    142  C          2.4810   15.6470    5.4020 C.2   117  ASP117      0.2597
    143  O          2.4580   16.4430    4.4490 O.2   117  ASP117     -0.2718
    144  CB         3.9430   16.7480    7.1550 C.3   117  ASP117      0.1424
    145  CG         5.0380   15.6870    7.2300 C.2   117  ASP117      0.3668
    146  OD1        5.0250   14.8570    8.1720 O.co2 117  ASP117     -0.2456
    147  OD2        5.9220   15.6970    6.3510 O.co2 117  ASP117     -0.2456
    148  N          2.4390   14.3240    5.2500 N.am  118  LEU118     -0.1979
    149  CA         2.2710   13.6770    3.9470 C.3   118  LEU118      0.1596
    150  C          0.8600   13.0750    3.8140 C.2   118  LEU118      0.2287
    151  O          0.6970   11.9390    3.3790 O.2   118  LEU118     -0.2864
    152  CB         3.3440   12.5920    3.7290 C.3   118  LEU118      0.0297
    153  CG         4.8290   12.8340    4.0540 C.3   118  LEU118      0.0022
    154  CD1        5.6230   11.5340    3.9340 C.3   118  LEU118      0.0001
    155  CD2        5.4710   13.9300    3.1930 C.3   118  LEU118      0.0001
    156  N          3.2730   14.8780   13.5070 N.3   144  SER144     -0.1202
    157  CA         4.3730   15.1030   12.5600 C.3   144  SER144      0.2020
    158  C          5.6650   15.3850   13.3160 C.2   144  SER144      0.2619
    159  O          5.8230   16.4660   13.8960 O.2   144  SER144     -0.2717
    160  CB         4.0480   16.2560   11.5990 C.3   144  SER144      0.2103
    161  OG         5.0690   16.3970   10.6130 O.3   144  SER144     -0.2182
    162  N          6.5730   14.4080   13.3460 N.am  145  VAL145     -0.1965
    163  CA         7.8840   14.6050   13.9810 C.3   145  VAL145      0.1727
    164  C          8.6380   15.7180   13.2290 C.2   145  VAL145      0.2616
    165  O          9.2760   16.5870   13.8490 O.2   145  VAL145     -0.2715
    166  CB         8.7280   13.2890   14.0570 C.3   145  VAL145      0.0290
    167  CG1       10.1350   13.5720   14.5700 C.3   145  VAL145      0.0023
    168  CG2        8.0560   12.2670   14.9680 C.3   145  VAL145      0.0023
    169  N          8.5220   15.6910   11.8990 N.am  146  LYS146     -0.1977
    170  CA         9.1360   16.6940   11.0160 C.3   146  LYS146      0.1596
    171  C          8.7690   18.1330   11.4030 C.2   146  LYS146      0.2287
    172  O          9.6530   18.9860   11.5550 O.2   146  LYS146     -0.2864
    173  CB         8.7870   16.4060    9.5430 C.3   146  LYS146      0.0298
    174  CG         9.4080   17.4040    8.5350 C.3   146  LYS146      0.0038
    175  CD         9.0030   17.0950    7.1060 C.3   146  LYS146      0.0206
    176  CE         9.4390   18.2200    6.1580 C.3   146  LYS146      0.1093
    177  NZ         9.0330   17.9260    4.7560 N.3   146  LYS146     -0.1314
@<TRIPOS>BOND
     1    88    87    1
     2    87    86   ar
     3    87    85   ar
     4    86    84   ar
     5    85    83   ar
     6    84    82   ar
     7    83    82   ar
     8    82    81    1
     9   155   153    1
    10   151   150    2
    11    68    67    1
    12   152   149    1
    13   152   153    1
    14   150   149    1
    15   154   153    1
    16   149   148    1
    17    81    78    1
    18    67    66    1
    19   143   142    2
    20    66    65    1
    21   177   176    1
    22   148   142   am
    23    63    62    2
    24   142   141    1
    25    78    77    1
    26    78    79    1
    27    65    64    1
    28    64    61    1
    29    77    71   am
    30   176   175    1
    31   147   145   ar
    32    62    61    1
    33    62    69   am
    34    79    80    2
    35    79    89   am
    36    71    70    1
    37    71    72    2
    38    61    60    1
    39   141   144    1
    40   141   140    1
    41    70    69    1
    42    70    73    1
    43   139   138    1
    44   175   174    1
    45   144   145    1
    46   145   146   ar
    47   134   133    2
    48    89    90    1
    49   137   138    1
    50   137   136    1
    51     9     6    1
    52    60    55   am
    53    73    74    1
    54   135   136    1
    55   135   132    1
    56    93    90    1
    57    93    94    1
    58   133   132    1
    59    74    75   ar
    60    74    76   ar
    61   174   173    1
    62    90    91    1
    63     8     7    2
    64     4     3    2
    65   132   131    1
    66     6     7    1
    67     6     5    1
    68    55    56    2
    69    55    54    1
    70    51    52   ar
    71    51    49   ar
    72     7    10   am
    73   173   170    1
    74    94    95    1
    75    52    50   ar
    76    92    91    2
    77     3     5   am
    78     3     2    1
    79    91    98   am
    80    95    96    1
    81   126   125    2
    82    49    47   ar
    83   105   106    1
    84   105   104    1
    85    10    11    1
    86   131   125   am
    87    54    57    1
    88    54    53    1
    89     2     1    1
    90   161   160    1
    91    11    12    1
    92    11    14    1
    93    96    97    1
    94    57    58    1
    95    57    59    1
    96   125   124    1
    97    15    14    1
    98    50    48   ar
    99    98    99    1
   100   170   171    1
   101   170   169    1
   102    45    44    2
   103   171   172    2
   104   104   103    1
   105    12    13    2
   106    12    17   am
   107    53    44   am
   108    47    48   ar
   109    47    46    1
   110   160   157    1
   111    14    16    1
   112    44    43    1
   113   169   164   am
   114   103   102    1
   115    17    18    1
   116    99   102    1
   117    99   100    1
   118   117   116    2
   119   124   127    1
   120   124   123    1
   121   129   128    2
   122    41    40    1
   123   157   158    1
   124   157   156    1
   125    18    19    1
   126   116   115    1
   127    46    43    1
   128   127   128    1
   129   128   130   am
   130    43    42    1
   131   100   101    2
   132   164   165    2
   133   164   163    1
   134   158   162   am
   135   158   159    2
   136   162   163    1
   137   119   120    1
   138   119   118    1
   139    40    37    1
   140   122   120   ar
   141   163   166    1
   142   166   167    1
   143   166   168    1
   144   120   121   ar
   145   115   118    1
   146   115   114    1
   147    19    21   am
   148    19    20    2
   149    29    28    1
   150    21    22    1
   151    37    36    1
   152    37    38    1
   153    36    32   am
   154    34    35    1
   155    34    31    1
   156    28    27    1
   157    26    25    1
   158    26    27    1
   159    30    31    1
   160    30    23   am
   161    22    25    1
   162    22    23    1
   163    38    39    2
   164    32    31    1
   165    32    33    2
   166    23    24    2
   167   113   111    1
   168   112   111    1
   169   110   109    2
   170   111   108    1
   171   109   108    1
   172   108   107    1
