@<TRIPOS>MOLECULE
tmp/1z2bB02.pdb
 108 108 0 0 0
SMALL
GASTEIGER

@<TRIPOS>ATOM
      1  N         88.4610   79.8720   -8.5620 N.3   172  PRO172     -0.2102
      2  CA        87.3380   79.2420   -9.2990 C.3   172  PRO172      0.1504
      3  C         87.7770   77.9790  -10.0260 C.2   172  PRO172      0.2576
      4  O         86.9440   77.0930  -10.2470 O.2   172  PRO172     -0.2718
      5  CB        86.9400   80.3060  -10.3430 C.3   172  PRO172      0.0282
      6  CG        88.2210   81.0670  -10.6330 C.3   172  PRO172      0.0208
      7  CD        89.0050   81.0370   -9.3040 C.3   172  PRO172      0.0893
      8  N         89.0570   77.9370  -10.4050 N.am  173  LYS173     -0.1966
      9  CA        89.7070   76.7760  -10.9770 C.3   173  LYS173      0.1728
     10  C         90.2380   75.9330   -9.8290 C.2   173  LYS173      0.2616
     11  O         90.6530   76.4670   -8.8000 O.2   173  LYS173     -0.2715
     12  CB        90.8410   77.2430  -11.8730 C.3   173  LYS173      0.0311
     13  CG        90.5310   78.5690  -12.5390 C.3   173  LYS173      0.0038
     14  CD        91.7740   79.2380  -13.1050 C.3   173  LYS173      0.0206
     15  CE        91.4010   80.2770  -14.1820 C.3   173  LYS173      0.1093
     16  NZ        92.5890   81.0210  -14.7220 N.3   173  LYS173     -0.1314
     17  N         90.1850   74.6160   -9.9840 N.am  174  VAL174     -0.1963
     18  CA        90.7420   73.7220   -8.9840 C.3   174  VAL174      0.1727
     19  C         89.7580   73.3940   -7.8290 C.2   174  VAL174      0.2617
     20  O         90.1550   72.8000   -6.8340 O.2   174  VAL174     -0.2715
     21  CB        92.1430   74.2640   -8.5260 C.3   174  VAL174      0.0290
     22  CG1       92.3630   74.1780   -7.0540 C.3   174  VAL174      0.0023
     23  CG2       93.2380   73.5590   -9.2430 C.3   174  VAL174      0.0023
     24  N         88.4750   73.7540   -7.9850 N.am  175  SER175     -0.1936
     25  CA        87.3830   73.4920   -6.9990 C.3   175  SER175      0.2055
     26  C         86.1240   74.3450   -7.2560 C.2   175  SER175      0.2643
     27  O         86.2140   75.5450   -7.5180 O.2   175  SER175     -0.2714
     28  CB        87.8330   73.7310   -5.5570 C.3   175  SER175      0.2130
     29  OG        88.1150   75.1070   -5.3660 O.3   175  SER175     -0.2179
     30  N         84.9530   73.7310   -7.1450 N.am  176  ASP176     -0.1971
     31  CA        83.6920   74.3760   -7.5080 C.3   176  ASP176      0.1709
     32  C         83.1490   75.0520   -6.2710 C.2   176  ASP176      0.2293
     33  O         83.4810   76.2050   -6.0540 O.2   176  ASP176     -0.2864
     34  CB        82.7660   73.3280   -8.0700 C.3   176  ASP176      0.1436
     35  CG        83.5010   72.0200   -8.3190 C.2   176  ASP176      0.3671
     36  OD1       84.4510   71.9950   -9.1470 O.co2 176  ASP176     -0.2456
     37  OD2       83.2430   70.9780   -7.6850 O.co2 176  ASP176     -0.2456
     38  N         97.9470   76.7120   -9.7220 N.3   207  TYR207     -0.1241
     39  CA        97.4060   76.0550  -10.9230 C.3   207  TYR207      0.1605
     40  C         98.2570   76.4410  -12.1210 C.2   207  TYR207      0.2264
     41  O         98.8630   75.5960  -12.7990 O.2   207  TYR207     -0.2867
     42  CB        95.9340   76.4820  -11.1650 C.3   207  TYR207      0.0534
     43  CG        95.2780   75.9970  -12.4550 C.ar  207  TYR207     -0.0201
     44  CD1       96.0010   75.8930  -13.6240 C.ar  207  TYR207     -0.0009
     45  CD2       93.9310   75.6620  -12.4980 C.ar  207  TYR207     -0.0009
     46  CE1       95.4320   75.4680  -14.7880 C.ar  207  TYR207      0.0417
     47  CE2       93.3440   75.2210  -13.6710 C.ar  207  TYR207      0.0417
     48  CZ        94.1150   75.1290  -14.8200 C.ar  207  TYR207      0.1957
     49  OH        93.6100   74.7160  -16.0330 O.3   207  TYR207     -0.2866
     50  N        100.2290   74.5300  -15.2160 N.3   211  PHE211     -0.1241
     51  CA        99.5600   74.3970  -16.5340 C.3   211  PHE211      0.1605
     52  C         99.9920   75.4650  -17.5950 C.2   211  PHE211      0.2264
     53  O        100.3120   75.1150  -18.7480 O.2   211  PHE211     -0.2867
     54  CB        98.0200   74.3800  -16.3450 C.3   211  PHE211      0.0534
     55  CG        97.2630   73.4230  -17.2650 C.ar  211  PHE211     -0.0203
     56  CD1       97.8210   72.2130  -17.6910 C.ar  211  PHE211     -0.0042
     57  CD2       95.9700   73.7380  -17.6830 C.ar  211  PHE211     -0.0042
     58  CE1       97.1090   71.3440  -18.5300 C.ar  211  PHE211     -0.0003
     59  CE2       95.2510   72.8760  -18.5110 C.ar  211  PHE211     -0.0003
     60  CZ        95.8240   71.6750  -18.9380 C.ar  211  PHE211     -0.0000
     61  N         99.2860   67.9900  -17.1380 N.3   217  THR217     -0.1203
     62  CA        97.8690   67.9140  -17.5770 C.3   217  THR217      0.1994
     63  C         96.8690   67.6830  -16.4430 C.2   217  THR217      0.2619
     64  O         96.0100   68.5310  -16.2220 O.2   217  THR217     -0.2717
     65  CB        97.6240   66.9020  -18.7460 C.3   217  THR217      0.1784
     66  OG1       98.0660   67.4740  -19.9770 O.3   217  THR217     -0.2211
     67  CG2       96.1240   66.7160  -19.0200 C.3   217  THR217      0.0376
     68  N         96.9720   66.5540  -15.7400 N.am  218  THR218     -0.1939
     69  CA        96.0660   66.2440  -14.6230 C.3   218  THR218      0.2013
     70  C         96.6440   66.7590  -13.2950 C.2   218  THR218      0.2484
     71  O         97.3200   66.0060  -12.6100 O.2   218  THR218     -0.2729
     72  CB        95.7930   64.7050  -14.5590 C.3   218  THR218      0.1807
     73  OG1       95.1480   64.2700  -15.7670 O.3   218  THR218     -0.2208
     74  CG2       94.7790   64.3570  -13.4580 C.3   218  THR218      0.0379
     75  N         96.4020   68.0190  -12.9200 N.am  219  PRO219     -0.2715
     76  CA        97.0900   68.5910  -11.7670 C.3   219  PRO219      0.1536
     77  C         96.4890   68.0950  -10.4600 C.2   219  PRO219      0.2599
     78  O         95.2880   68.2810  -10.2510 O.2   219  PRO219     -0.2715
     79  CB        96.8570   70.0930  -11.9480 C.3   219  PRO219      0.0310
     80  CG        96.3030   70.2430  -13.3190 C.3   219  PRO219      0.0237
     81  CD        95.4920   69.0070  -13.5120 C.3   219  PRO219      0.0939
     82  N         97.3050   67.4500   -9.6180 N.am  220  THR220     -0.1937
     83  CA        96.8580   66.9640   -8.3080 C.3   220  THR220      0.2028
     84  C         96.7500   68.1510   -7.4260 C.2   220  THR220      0.2642
     85  O         97.2760   69.2160   -7.7360 O.2   220  THR220     -0.2714
     86  CB        97.9060   66.0580   -7.5950 C.3   220  THR220      0.1808
     87  OG1       98.7860   65.4390   -8.5300 O.3   220  THR220     -0.2208
     88  CG2       97.2410   64.8890   -6.8490 C.3   220  THR220      0.0379
     89  N         96.1240   67.9540   -6.2810 N.am  221  TYR221     -0.1973
     90  CA        96.5130   68.7850   -5.1720 C.3   221  TYR221      0.1639
     91  C         97.9770   68.4730   -4.8650 C.2   221  TYR221      0.2290
     92  O         98.7700   69.3970   -4.7100 O.2   221  TYR221     -0.2864
     93  CB        95.5840   68.6170   -3.9770 C.3   221  TYR221      0.0560
     94  CG        94.4440   69.6220   -4.0120 C.ar  221  TYR221     -0.0198
     95  CD1       93.1190   69.2020   -4.1410 C.ar  221  TYR221     -0.0009
     96  CD2       94.6920   70.9960   -3.9450 C.ar  221  TYR221     -0.0009
     97  CE1       92.0630   70.1290   -4.1790 C.ar  221  TYR221      0.0417
     98  CE2       93.6460   71.9270   -3.9850 C.ar  221  TYR221      0.0417
     99  CZ        92.3390   71.4850   -4.0950 C.ar  221  TYR221      0.1957
    100  OH        91.3020   72.3860   -4.1290 O.3   221  TYR221     -0.2866
    101  N        101.7620   70.6270   -6.9660 N.3   224  LEU224     -0.1245
    102  CA       101.0190   71.8790   -6.7650 C.3   224  LEU224      0.1561
    103  C        101.0840   72.2230   -5.2810 C.2   224  LEU224      0.2260
    104  O        101.3000   73.3740   -4.8960 O.2   224  LEU224     -0.2867
    105  CB        99.5550   71.7570   -7.2010 C.3   224  LEU224      0.0270
    106  CG        98.6040   72.9040   -6.8820 C.3   224  LEU224      0.0019
    107  CD1       98.2150   73.5890   -8.1500 C.3   224  LEU224      0.0001
    108  CD2       97.3900   72.3680   -6.1920 C.3   224  LEU224      0.0001
@<TRIPOS>BOND
     1    66    65    1
     2    67    65    1
     3    60    58   ar
     4    60    59   ar
     5    53    52    2
     6    65    62    1
     7    58    56   ar
     8    59    57   ar
     9    56    55   ar
    10    57    55   ar
    11    52    51    1
    12    62    61    1
    13    62    63    1
    14    55    54    1
    15    51    54    1
    16    51    50    1
    17    63    64    2
    18    63    68   am
    19    49    48    1
    20    73    72    1
    21    68    69    1
    22    48    46   ar
    23    48    47   ar
    24    46    44   ar
    25    16    15    1
    26    69    72    1
    27    69    70    1
    28    72    74    1
    29    15    14    1
    30    47    45   ar
    31    44    43   ar
    32    81    80    1
    33    81    75    1
    34    80    79    1
    35    70    75   am
    36    70    71    2
    37    14    13    1
    38    75    76    1
    39    41    40    2
    40    13    12    1
    41    45    43   ar
    42    43    42    1
    43    40    39    1
    44    79    76    1
    45    12     9    1
    46    76    77    1
    47    42    39    1
    48     9     8    1
    49     9    10    1
    50    39    38    1
    51     6     5    1
    52     6     7    1
    53    77    78    2
    54    77    82   am
    55     8     3   am
    56     5     2    1
    57     4     3    2
    58     3     2    1
    59    17    10   am
    60    17    18    1
    61    10    11    2
    62    82    83    1
    63     7     1    1
    64     2     1    1
    65    23    21    1
    66    36    35   ar
    67    18    21    1
    68    18    19    1
    69    87    86    1
    70    21    22    1
    71    35    34    1
    72    35    37   ar
    73    83    86    1
    74    83    84    1
    75   107   106    1
    76    34    31    1
    77    24    19   am
    78    24    25    1
    79    19    20    2
    80    85    84    2
    81    86    88    1
    82    27    26    2
    83    31    30    1
    84    31    32    1
    85    84    89   am
    86    26    30   am
    87    26    25    1
    88   105   106    1
    89   105   102    1
    90    25    28    1
    91   101   102    1
    92   106   108    1
    93   102   103    1
    94    89    90    1
    95    32    33    2
    96    28    29    1
    97   103   104    2
    98    90    91    1
    99    90    93    1
   100    91    92    2
   101    97    95   ar
   102    97    99   ar
   103    95    94   ar
   104   100    99    1
   105    99    98   ar
   106    94    93    1
   107    94    96   ar
   108    98    96   ar
