@<TRIPOS>MOLECULE
tmp/1z2oA01.pdb
 192 181 0 0 0
SMALL
GASTEIGER

@<TRIPOS>ATOM
      1  N         27.8290  -15.8150   15.1640 N.3    13  LYS13      -0.1245
      2  CA        27.0650  -14.7870   15.8680 C.3    13  LYS13       0.1561
      3  C         27.6100  -14.5670   17.2750 C.2    13  LYS13       0.2260
      4  O         27.6660  -13.4330   17.7500 O.2    13  LYS13      -0.2867
      5  CB        25.5740  -15.1590   15.8980 C.3    13  LYS13       0.0271
      6  CG        24.6650  -14.2200   16.6950 C.3    13  LYS13       0.0035
      7  CD        24.4880  -12.8590   16.0430 C.3    13  LYS13       0.0206
      8  CE        23.3830  -12.0740   16.7420 C.3    13  LYS13       0.1093
      9  NZ        23.3450  -10.6790   16.2490 N.3    13  LYS13      -0.1314
     10  N         30.7210  -12.1790   16.9660 N.3    16  THR16      -0.1218
     11  CA        30.3960  -10.7750   16.6890 C.3    16  THR16       0.1862
     12  C         29.6560  -10.1120   17.8520 C.2    16  THR16       0.2287
     13  O         29.8570   -8.9260   18.1320 O.2    16  THR16      -0.2866
     14  CB        29.5890  -10.6000   15.3780 C.3    16  THR16       0.1770
     15  OG1       28.3880  -11.3840   15.4320 O.3    16  THR16      -0.2211
     16  CG2       30.4230  -11.0120   14.1670 C.3    16  THR16       0.0375
     17  N         18.9660  -15.9160   17.2330 N.3    53  LYS53      -0.1245
     18  CA        18.9020  -15.2130   15.9650 C.3    53  LYS53       0.1561
     19  C         19.0970  -16.2640   14.8810 C.2    53  LYS53       0.2260
     20  O         20.1300  -16.9380   14.8340 O.2    53  LYS53      -0.2867
     21  CB        19.9770  -14.1190   15.8720 C.3    53  LYS53       0.0271
     22  CG        20.1790  -13.5310   14.4750 C.3    53  LYS53       0.0035
     23  CD        19.0580  -12.6250   14.0300 C.3    53  LYS53       0.0206
     24  CE        19.4570  -11.8670   12.7640 C.3    53  LYS53       0.1093
     25  NZ        20.4640  -10.8050   13.0430 N.3    53  LYS53      -0.1314
     26  N         20.1710  -17.4380   11.5200 N.3    55  THR55      -0.1218
     27  CA        21.2720  -16.8670   10.7230 C.3    55  THR55       0.1862
     28  C         20.8320  -16.5170    9.3030 C.2    55  THR55       0.2287
     29  O         21.1910  -15.4610    8.7750 O.2    55  THR55      -0.2866
     30  CB        22.4950  -17.8180   10.6690 C.3    55  THR55       0.1770
     31  OG1       22.7530  -18.3340   11.9790 O.3    55  THR55      -0.2211
     32  CG2       23.7390  -17.0930   10.1520 C.3    55  THR55       0.0375
     33  N         15.1600   -8.7290    3.6480 N.3   136  ALA136     -0.1231
     34  CA        15.7600   -7.7550    4.5510 C.3   136  ALA136      0.1694
     35  C         16.9450   -8.2520    5.3650 C.2   136  ALA136      0.2592
     36  O         17.6660   -7.4430    5.9520 O.2   136  ALA136     -0.2718
     37  CB        14.6910   -7.2150    5.4880 C.3   136  ALA136      0.0304
     38  N         17.1420   -9.5690    5.4300 N.am  137  GLN137     -0.1966
     39  CA        18.0510  -10.1410    6.4240 C.3   137  GLN137      0.1733
     40  C         18.6840  -11.4570    5.9880 C.2   137  GLN137      0.2617
     41  O         18.0210  -12.3180    5.3970 O.2   137  GLN137     -0.2715
     42  CB        17.3050  -10.3200    7.7590 C.3   137  GLN137      0.0408
     43  CG        18.1730  -10.6860    8.9610 C.3   137  GLN137      0.0908
     44  CD        18.1700  -12.1710    9.2530 C.2   137  GLN137      0.2608
     45  OE1       17.1100  -12.8000    9.3320 O.2   137  GLN137     -0.2717
     46  NE2       19.3580  -12.7390    9.4350 N.am  137  GLN137     -0.0878
     47  N         19.9770  -11.5930    6.2700 N.am  138  GLY138     -0.1940
     48  CA        20.6410  -12.8970    6.2160 C.3   138  GLY138      0.2014
     49  C         21.3860  -13.2490    4.9470 C.2   138  GLY138      0.2639
     50  O         21.8930  -14.3730    4.8230 O.2   138  GLY138     -0.2714
     51  N         21.4470  -12.3130    4.0000 N.am  139  THR139     -0.1950
     52  CA        22.2320  -12.4810    2.7700 C.3   139  THR139      0.1897
     53  C         22.9140  -11.1690    2.3870 C.2   139  THR139      0.2313
     54  O         22.4490  -10.0930    2.7760 O.2   139  THR139     -0.2863
     55  CB        21.3610  -12.9120    1.5640 C.3   139  THR139      0.1794
     56  OG1       20.3510  -11.9240    1.3230 O.3   139  THR139     -0.2208
     57  CG2       20.7060  -14.2740    1.7900 C.3   139  THR139      0.0378
     58  N         21.2160   -6.3890    1.3410 N.3   143  HIS143     -0.1241
     59  CA        21.7810   -5.0770    1.6760 C.3   143  HIS143      0.1621
     60  C         22.2820   -4.3160    0.4520 C.2   143  HIS143      0.2264
     61  O         22.9740   -3.3020    0.5770 O.2   143  HIS143     -0.2867
     62  CB        22.8860   -5.2560    2.7190 C.3   143  HIS143      0.0745
     63  CG        22.4500   -6.0820    3.8890 C.ar  143  HIS143      0.0817
     64  ND1       21.5720   -5.6110    4.8420 N.ar  143  HIS143     -0.2268
     65  CD2       22.7220   -7.3650    4.2310 C.ar  143  HIS143      0.1154
     66  CE1       21.3410   -6.5600    5.7330 C.ar  143  HIS143      0.1986
     67  NE2       22.0280   -7.6330    5.3860 N.ar  143  HIS143     -0.2212
     68  N         21.0800    4.8120   16.0850 N.3   175  LYS175     -0.1245
     69  CA        20.8370    3.3950   16.2560 C.3   175  LYS175      0.1561
     70  C         20.3850    3.1420   17.6820 C.2   175  LYS175      0.2260
     71  O         21.0890    3.4930   18.6380 O.2   175  LYS175     -0.2867
     72  CB        22.0970    2.5980   15.9320 C.3   175  LYS175      0.0271
     73  CG        22.6180    2.8820   14.5220 C.3   175  LYS175      0.0035
     74  CD        23.7750    1.9910   14.1320 C.3   175  LYS175      0.0206
     75  CE        23.3070    0.5830   13.8260 C.3   175  LYS175      0.1093
     76  NZ        22.6290    0.4120   12.5030 N.3   175  LYS175     -0.1314
     77  N         19.2660    0.0960   20.1370 N.3   177  PHE177     -0.1241
     78  CA        19.2360   -1.3520   20.3440 C.3   177  PHE177      0.1605
     79  C         18.3820   -1.6640   21.5680 C.2   177  PHE177      0.2264
     80  O         18.5320   -1.0230   22.6090 O.2   177  PHE177     -0.2867
     81  CB        20.6510   -1.8880   20.5580 C.3   177  PHE177      0.0534
     82  CG        21.6100   -1.5440   19.4520 C.ar  177  PHE177     -0.0203
     83  CD1       21.5250   -2.1690   18.2130 C.ar  177  PHE177     -0.0042
     84  CD2       22.6140   -0.6070   19.6570 C.ar  177  PHE177     -0.0042
     85  CE1       22.4290   -1.8480   17.1920 C.ar  177  PHE177     -0.0003
     86  CE2       23.5100   -0.2860   18.6420 C.ar  177  PHE177     -0.0003
     87  CZ        23.4110   -0.9060   17.4140 C.ar  177  PHE177     -0.0000
     88  N         23.4050    4.7990   19.9360 N.3   186  GLN186     -0.1245
     89  CA        24.5900    5.4740   19.4250 C.3   186  GLN186      0.1566
     90  C         24.2320    6.2460   18.1600 C.2   186  GLN186      0.2260
     91  O         23.1660    6.0370   17.5780 O.2   186  GLN186     -0.2867
     92  CB        25.7120    4.4650   19.1490 C.3   186  GLN186      0.0367
     93  CG        25.3340    3.4310   18.1140 C.3   186  GLN186      0.0905
     94  CD        26.3700    2.3390   17.8810 C.2   186  GLN186      0.2608
     95  OE1       26.4990    1.8540   16.7640 O.2   186  GLN186     -0.2717
     96  NE2       27.0790    1.9320   18.9220 N.am  186  GLN186     -0.0878
     97  N         25.9220    7.0150   14.3150 N.3   188  ARG188     -0.1245
     98  CA        26.9590    6.6680   13.3480 C.3   188  ARG188      0.1563
     99  C         26.8330    7.5540   12.1230 C.2   188  ARG188      0.2260
    100  O         25.7890    8.1780   11.8990 O.2   188  ARG188     -0.2867
    101  CB        26.8700    5.1960   12.9310 C.3   188  ARG188      0.0307
    102  CG        26.8910    4.2080   14.0840 C.3   188  ARG188      0.0489
    103  CD        27.1420    2.7990   13.5970 C.3   188  ARG188      0.2205
    104  NE        28.5610    2.5530   13.3150 N.pl3 188  ARG188     -0.0865
    105  CZ        29.4710    2.2150   14.2280 C.cat 188  ARG188      0.5346
    106  NH1       29.1300    2.0680   15.5020 N.pl3 188  ARG188      0.1354
    107  NH2       30.7350    2.0130   13.8630 N.pl3 188  ARG188      0.1354
    108  N         25.2720   -1.9150    1.6620 N.3   206  ASN206     -0.1225
    109  CA        25.4550   -1.3480    3.0020 C.3   206  ASN206      0.1785
    110  C         26.5750   -2.0070    3.8050 C.2   206  ASN206      0.2597
    111  O         27.0730   -1.4290    4.7710 O.2   206  ASN206     -0.2718
    112  CB        24.1410   -1.3340    3.8030 C.3   206  ASN206      0.1169
    113  CG        24.1700   -0.3320    4.9600 C.2   206  ASN206      0.2627
    114  OD1       24.4920    0.8430    4.7740 O.2   206  ASN206     -0.2716
    115  ND2       23.8240   -0.7990    6.1560 N.am  206  ASN206     -0.0877
    116  N         26.9720   -3.2090    3.3950 N.am  207  GLN207     -0.1979
    117  CA        28.1250   -3.8990    3.9870 C.3   207  GLN207      0.1601
    118  C         29.4480   -3.5260    3.3160 C.2   207  GLN207      0.2287
    119  O         30.5200   -3.9060    3.8000 O.2   207  GLN207     -0.2864
    120  CB        27.9340   -5.4170    3.9230 C.3   207  GLN207      0.0394
    121  CG        26.8020   -5.9410    4.8010 C.3   207  GLN207      0.0908
    122  CD        26.6180   -7.4470    4.7130 C.2   207  GLN207      0.2608
    123  OE1       27.2300   -8.1180    3.8790 O.2   207  GLN207     -0.2717
    124  NE2       25.7620   -7.9850    5.5770 N.am  207  GLN207     -0.0878
    125  N         16.9500   -3.9010   16.7410 N.3   269  GLY269     -0.1225
    126  CA        17.6520   -2.6480   16.5230 C.3   269  GLY269      0.1811
    127  C         16.7990   -1.7840   15.6260 C.2   269  GLY269      0.2280
    128  O         16.2040   -2.2680   14.6650 O.2   269  GLY269     -0.2866
    129  N         16.9060    1.8120   13.3590 N.3   271  ASP271     -0.1239
    130  CA        17.6970    2.8910   12.7560 C.3   271  ASP271      0.1674
    131  C         16.7680    4.0550   12.4320 C.2   271  ASP271      0.2266
    132  O         15.7670    3.8550   11.7420 O.2   271  ASP271     -0.2867
    133  CB        18.3170    2.4540   11.4080 C.3   271  ASP271      0.1410
    134  CG        19.3580    1.3420   11.5220 C.2   271  ASP271      0.3668
    135  OD1       19.8920    1.1090   12.6130 O.co2 271  ASP271     -0.2456
    136  OD2       19.6510    0.7140   10.4770 O.co2 271  ASP271     -0.2456
    137  N         14.9380    1.4640    9.2650 N.3   285  ASP285     -0.1239
    138  CA        15.2900    0.0460    9.3670 C.3   285  ASP285      0.1674
    139  C         14.9450   -0.4610   10.7550 C.2   285  ASP285      0.2266
    140  O         15.1070    0.2550   11.7450 O.2   285  ASP285     -0.2867
    141  CB        16.7980   -0.1090    9.1140 C.3   285  ASP285      0.1410
    142  CG        17.2440   -1.5400    8.8590 C.2   285  ASP285      0.3668
    143  OD1       16.4220   -2.3850    8.4820 O.co2 285  ASP285     -0.2456
    144  OD2       18.4670   -1.7930    9.0170 O.co2 285  ASP285     -0.2456
    145  N         15.7450   -4.2180   12.7210 N.3   287  ASN287     -0.1240
    146  CA        16.4550   -5.4840   12.6030 C.3   287  ASN287      0.1653
    147  C         16.1770   -6.3720   13.7980 C.2   287  ASN287      0.2266
    148  O         16.1140   -5.8970   14.9280 O.2   287  ASN287     -0.2867
    149  CB        17.9630   -5.2250   12.5310 C.3   287  ASN287      0.1155
    150  CG        18.3430   -4.3240   11.3770 C.2   287  ASN287      0.2627
    151  OD1       17.8930   -4.5250   10.2550 O.2   287  ASN287     -0.2716
    152  ND2       19.1710   -3.3250   11.6450 N.am  287  ASN287     -0.0877
    153  N         17.2510   -9.0020   16.5980 N.3   289  PHE289     -0.1228
    154  CA        18.4240   -9.4730   17.3560 C.3   289  PHE289      0.1721
    155  C         19.7530   -9.0320   16.7140 C.2   289  PHE289      0.2437
    156  O         20.5040   -9.8570   16.1880 O.2   289  PHE289     -0.2733
    157  CB        18.3630  -11.0010   17.4900 C.3   289  PHE289      0.0547
    158  CG        19.2150  -11.5840   18.6010 C.ar  289  PHE289     -0.0202
    159  CD1       18.8690  -12.8210   19.1370 C.ar  289  PHE289     -0.0042
    160  CD2       20.3480  -10.9420   19.0930 C.ar  289  PHE289     -0.0042
    161  CE1       19.6230  -13.4100   20.1450 C.ar  289  PHE289     -0.0003
    162  CE2       21.1140  -11.5320   20.1100 C.ar  289  PHE289     -0.0003
    163  CZ        20.7450  -12.7800   20.6250 C.ar  289  PHE289     -0.0000
    164  N         20.0520   -7.7210   16.7660 N.am  290  PRO290     -0.2718
    165  CA        21.2640   -7.1640   16.1600 C.3   290  PRO290      0.1535
    166  C         22.5340   -7.4330   16.9850 C.2   290  PRO290      0.2599
    167  O         22.5170   -8.2740   17.8840 O.2   290  PRO290     -0.2715
    168  CB        20.9490   -5.6670   16.1110 C.3   290  PRO290      0.0310
    169  CG        20.1110   -5.4420   17.2890 C.3   290  PRO290      0.0237
    170  CD        19.2350   -6.6690   17.3980 C.3   290  PRO290      0.0939
    171  N         23.6160   -6.7130   16.6800 N.am  291  SER291     -0.1936
    172  CA        24.9100   -6.9100   17.3550 C.3   291  SER291      0.2055
    173  C         25.0940   -6.0440   18.5990 C.2   291  SER291      0.2643
    174  O         26.0840   -6.1980   19.3160 O.2   291  SER291     -0.2714
    175  CB        26.0690   -6.6440   16.3920 C.3   291  SER291      0.2130
    176  OG        26.2990   -5.2530   16.2740 O.3   291  SER291     -0.2179
    177  N         24.1680   -5.1140   18.8310 N.am  292  TYR292     -0.1959
    178  CA        24.1790   -4.2640   20.0280 C.3   292  TYR292      0.1771
    179  C         25.4330   -3.3930   20.1460 C.2   292  TYR292      0.2620
    180  O         25.8740   -3.0690   21.2440 O.2   292  TYR292     -0.2715
    181  CB        23.9530   -5.1120   21.2970 C.3   292  TYR292      0.0574
    182  CG        22.5560   -5.6760   21.3230 C.ar  292  TYR292     -0.0198
    183  CD1       21.5120   -4.9460   21.8870 C.ar  292  TYR292     -0.0009
    184  CD2       22.2650   -6.9110   20.7320 C.ar  292  TYR292     -0.0009
    185  CE1       20.2150   -5.4280   21.8740 C.ar  292  TYR292      0.0417
    186  CE2       20.9700   -7.4090   20.7230 C.ar  292  TYR292      0.0417
    187  CZ        19.9550   -6.6630   21.2920 C.ar  292  TYR292      0.1957
    188  OH        18.6720   -7.1460   21.2760 O.3   292  TYR292     -0.2866
    189  N         25.9840   -3.0070   19.0030 N.am  293  GLY293     -0.1954
    190  CA        27.2420   -2.2560   18.9750 C.3   293  GLY293      0.1869
    191  C         28.4620   -3.1500   18.8240 C.2   293  GLY293      0.2309
    192  O         29.5800   -2.6550   18.6610 O.2   293  GLY293     -0.2863
@<TRIPOS>BOND
     1    60    61    2
     2    60    59    1
     3    56    55    1
     4    58    59    1
     5    55    57    1
     6    55    52    1
     7   108   109    1
     8    59    62    1
     9    53    52    1
    10    53    54    2
    11    62    63    1
    12    52    51    1
    13   109   112    1
    14   109   110    1
    15   118   119    2
    16   118   117    1
    17   116   110   am
    18   116   117    1
    19    33    34    1
    20   112   113    1
    21   110   111    2
    22   123   122    2
    23    63    65   ar
    24    63    64   ar
    25   120   117    1
    26   120   121    1
    27    51    49   am
    28    65    67   ar
    29    34    35    1
    30    34    37    1
    31   122   121    1
    32   122   124   am
    33   114   113    2
    34    50    49    2
    35    64    66   ar
    36    49    48    1
    37   113   115   am
    38    35    38   am
    39    35    36    2
    40    67    66   ar
    41    41    40    2
    42    38    39    1
    43    40    47   am
    44    40    39    1
    45    48    47    1
    46    39    42    1
    47    42    43    1
    48   143   142   ar
    49    29    28    2
    50   142   144   ar
    51   142   141    1
    52    43    44    1
    53   141   138    1
    54    44    45    2
    55    44    46   am
    56   137   138    1
    57    28    27    1
    58   138   139    1
    59    32    30    1
    60   151   150    2
    61   136   134   ar
    62    30    27    1
    63    30    31    1
    64    27    26    1
    65   139   140    2
    66   150   152   am
    67   150   149    1
    68   133   134    1
    69   133   130    1
    70   134   135   ar
    71   132   131    2
    72   100    99    2
    73    99    98    1
    74   131   130    1
    75    76    75    1
    76   149   146    1
    77   146   145    1
    78   146   147    1
    79   130   129    1
    80    24    25    1
    81    24    23    1
    82   101    98    1
    83   101   102    1
    84   104   103    1
    85   104   105    2
    86    98    97    1
    87   103   102    1
    88   147   148    2
    89    75    74    1
    90   107   105    1
    91    23    22    1
    92    74    73    1
    93    16    14    1
    94   105   106    1
    95    22    21    1
    96    73    72    1
    97   128   127    2
    98    20    19    2
    99    19    18    1
   100     1     2    1
   101    14    15    1
   102    14    11    1
   103   127   126    1
   104     2     5    1
   105     2     3    1
   106    21    18    1
   107     5     6    1
   108    72    69    1
   109    18    17    1
   110     7     6    1
   111     7     8    1
   112    68    69    1
   113   168   165    1
   114   168   169    1
   115   165   164    1
   116   165   166    1
   117   156   155    2
   118     9     8    1
   119    69    70    1
   120   176   175    1
   121   175   172    1
   122   126   125    1
   123   153   154    1
   124   171   166   am
   125   171   172    1
   126    11    10    1
   127    11    12    1
   128   155   164   am
   129   155   154    1
   130    95    94    2
   131   164   170    1
   132   166   167    2
   133    85    87   ar
   134    85    83   ar
   135     3     4    2
   136   169   170    1
   137   172   173    1
   138   154   157    1
   139    87    86   ar
   140   157   158    1
   141    91    90    2
   142    70    71    2
   143    12    13    2
   144    94    93    1
   145    94    96   am
   146    93    92    1
   147    90    89    1
   148    83    82   ar
   149   173   177   am
   150   173   174    2
   151   158   160   ar
   152   158   159   ar
   153    86    84   ar
   154   192   191    2
   155   191   190    1
   156   177   178    1
   157   190   189    1
   158   189   179   am
   159   160   162   ar
   160   159   161   ar
   161    92    89    1
   162    89    88    1
   163    82    84   ar
   164    82    81    1
   165   178   179    1
   166   178   181    1
   167   162   163   ar
   168    77    78    1
   169   161   163   ar
   170   179   180    2
   171    78    81    1
   172    78    79    1
   173   186   184   ar
   174   186   187   ar
   175   184   182   ar
   176   188   187    1
   177   187   185   ar
   178   181   182    1
   179   182   183   ar
   180    79    80    2
   181   185   183   ar
