@<TRIPOS>MOLECULE
tmp/1z2oA00.pdb
 196 184 0 0 0
SMALL
GASTEIGER

@<TRIPOS>ATOM
      1  N         10.8400   -6.3360    4.0950 N.3    90  ARG90      -0.1245
      2  CA        10.7260   -4.8870    4.2090 C.3    90  ARG90       0.1563
      3  C          9.2840   -4.4140    4.0150 C.2    90  ARG90       0.2260
      4  O          8.8660   -3.4440    4.6310 O.2    90  ARG90      -0.2867
      5  CB        11.7230   -4.1600    3.2970 C.3    90  ARG90       0.0307
      6  CG        13.1720   -4.3800    3.7370 C.3    90  ARG90       0.0489
      7  CD        14.1410   -3.3530    3.1500 C.3    90  ARG90       0.2205
      8  NE        15.4570   -3.4520    3.7830 N.pl3  90  ARG90      -0.0865
      9  CZ        16.4490   -4.2230    3.3560 C.cat  90  ARG90       0.5346
     10  NH1       16.3250   -4.9530    2.2560 N.pl3  90  ARG90       0.1354
     11  NH2       17.5810   -4.2580    4.0320 N.pl3  90  ARG90       0.1354
     12  N         10.1820    7.5860    6.1550 N.3   105  PRO105     -0.2116
     13  CA        10.1410    8.2980    4.8760 C.3   105  PRO105      0.1372
     14  C          9.1230    7.5890    3.9990 C.2   105  PRO105      0.2244
     15  O          8.8980    6.3950    4.1610 O.2   105  PRO105     -0.2868
     16  CB        11.5650    8.1110    4.3180 C.3   105  PRO105      0.0268
     17  CG        12.3900    7.6720    5.4980 C.3   105  PRO105      0.0207
     18  CD        11.4650    6.8920    6.3580 C.3   105  PRO105      0.0892
     19  N         15.6270    5.7140   -2.4080 N.3   130  ILE130     -0.1245
     20  CA        16.4630    4.5490   -2.2280 C.3   130  ILE130      0.1561
     21  C         15.6260    3.3000   -2.4840 C.2   130  ILE130      0.2260
     22  O         14.4320    3.2350   -2.1500 O.2   130  ILE130     -0.2867
     23  CB        17.1390    4.5530   -0.8350 C.3   130  ILE130      0.0252
     24  CG1       18.1770    3.4360   -0.7280 C.3   130  ILE130      0.0019
     25  CG2       16.1040    4.5360    0.3140 C.3   130  ILE130      0.0019
     26  CD1       19.1130    3.6220    0.4360 C.3   130  ILE130      0.0001
     27  N         15.4990   -0.6310   -1.7570 N.3   132  LYS132     -0.1245
     28  CA        15.9890   -1.6700   -0.8660 C.3   132  LYS132      0.1561
     29  C         15.3420   -3.0000   -1.2490 C.2   132  LYS132      0.2260
     30  O         14.1500   -3.0410   -1.5610 O.2   132  LYS132     -0.2867
     31  CB        15.6290   -1.3550    0.5820 C.3   132  LYS132      0.0271
     32  CG        15.9450    0.0630    1.0230 C.3   132  LYS132      0.0035
     33  CD        15.6970    0.2740    2.5130 C.3   132  LYS132      0.0206
     34  CE        15.8110    1.7290    2.8800 C.3   132  LYS132      0.1093
     35  NZ        15.6100    1.9540    4.3330 N.3   132  LYS132     -0.1314
     36  N         15.1600   -8.7290    3.6480 N.3   136  ALA136     -0.1245
     37  CA        15.7600   -7.7550    4.5510 C.3   136  ALA136      0.1562
     38  C         16.9450   -8.2520    5.3650 C.2   136  ALA136      0.2260
     39  O         17.6660   -7.4430    5.9520 O.2   136  ALA136     -0.2867
     40  CB        14.6910   -7.2150    5.4880 C.3   136  ALA136      0.0290
     41  N         21.2160   -6.3890    1.3410 N.3   143  HIS143     -0.1241
     42  CA        21.7810   -5.0770    1.6760 C.3   143  HIS143      0.1621
     43  C         22.2820   -4.3160    0.4520 C.2   143  HIS143      0.2264
     44  O         22.9740   -3.3020    0.5770 O.2   143  HIS143     -0.2867
     45  CB        22.8860   -5.2560    2.7190 C.3   143  HIS143      0.0745
     46  CG        22.4500   -6.0820    3.8890 C.ar  143  HIS143      0.0817
     47  ND1       21.5720   -5.6110    4.8420 N.ar  143  HIS143     -0.2268
     48  CD2       22.7220   -7.3650    4.2310 C.ar  143  HIS143      0.1154
     49  CE1       21.3410   -6.5600    5.7330 C.ar  143  HIS143      0.1986
     50  NE2       22.0280   -7.6330    5.3860 N.ar  143  HIS143     -0.2212
     51  N         21.7570   -1.8720   -2.3440 N.3   145  MET145     -0.1245
     52  CA        20.8780   -0.7180   -2.5000 C.3   145  MET145      0.1570
     53  C         21.1650    0.0770   -3.7750 C.2   145  MET145      0.2261
     54  O         22.2930    0.1110   -4.2690 O.2   145  MET145     -0.2867
     55  CB        21.0400    0.2420   -1.3160 C.3   145  MET145      0.0387
     56  CG        21.0070   -0.3790    0.0720 C.3   145  MET145      0.0595
     57  SD        19.5030   -1.3380    0.3370 S.3   145  MET145     -0.1393
     58  CE        19.5490   -1.6580    2.0880 C.3   145  MET145      0.0692
     59  N         11.8300    3.9480   -1.2330 N.3   164  GLN164     -0.1231
     60  CA        11.6320    4.8160   -0.0930 C.3   164  GLN164      0.1698
     61  C         12.2570    6.1750   -0.3840 C.2   164  GLN164      0.2592
     62  O         13.4210    6.2510   -0.7860 O.2   164  GLN164     -0.2718
     63  CB        12.2460    4.1610    1.1410 C.3   164  GLN164      0.0381
     64  CG        12.0700    4.9800    2.3820 C.3   164  GLN164      0.0905
     65  CD        12.5740    4.2450    3.6020 C.2   164  GLN164      0.2608
     66  OE1       13.7590    4.2970    3.9230 O.2   164  GLN164     -0.2717
     67  NE2       11.6790    3.5640    4.2950 N.am  164  GLN164     -0.0878
     68  N         11.5070    7.2500   -0.1960 N.am  165  HIS165     -0.1962
     69  CA        12.0230    8.5660   -0.4840 C.3   165  HIS165      0.1787
     70  C         13.3340    8.7750    0.2660 C.2   165  HIS165      0.2620
     71  O         13.4540    8.4500    1.4540 O.2   165  HIS165     -0.2715
     72  CB        11.0010    9.6330   -0.1100 C.3   165  HIS165      0.0785
     73  CG        11.4880   11.0260   -0.3450 C.ar  165  HIS165      0.0821
     74  ND1       11.8280   11.5020   -1.5970 N.ar  165  HIS165     -0.2267
     75  CD2       11.7310   12.0370    0.5200 C.ar  165  HIS165      0.1154
     76  CE1       12.2560   12.7470   -1.4890 C.ar  165  HIS165      0.1986
     77  NE2       12.2030   13.0970   -0.2180 N.ar  165  HIS165     -0.2212
     78  N         14.3250    9.3030   -0.4470 N.am  166  TYR166     -0.1960
     79  CA        15.6540    9.5490    0.1080 C.3   166  TYR166      0.1771
     80  C         15.6420   10.8470    0.8780 C.2   166  TYR166      0.2619
     81  O         15.2560   11.8930    0.3530 O.2   166  TYR166     -0.2715
     82  CB        16.7170    9.6250   -0.9890 C.3   166  TYR166      0.0574
     83  CG        18.1290    9.5960   -0.4500 C.ar  166  TYR166     -0.0198
     84  CD1       18.8080    8.3990   -0.3060 C.ar  166  TYR166     -0.0009
     85  CD2       18.7610   10.7690   -0.0440 C.ar  166  TYR166     -0.0009
     86  CE1       20.1000    8.3600    0.1940 C.ar  166  TYR166      0.0417
     87  CE2       20.0500   10.7420    0.4760 C.ar  166  TYR166      0.0417
     88  CZ        20.7080    9.5370    0.5820 C.ar  166  TYR166      0.1957
     89  OH        21.9810    9.4680    1.0790 O.3   166  TYR166     -0.2866
     90  N         16.0740   10.7750    2.1270 N.am  167  ILE167     -0.1977
     91  CA        16.1160   11.9380    2.9950 C.3   167  ILE167      0.1596
     92  C         17.5530   12.4120    3.1400 C.2   167  ILE167      0.2287
     93  O         18.4280   11.6310    3.5080 O.2   167  ILE167     -0.2864
     94  CB        15.5630   11.5780    4.3970 C.3   167  ILE167      0.0276
     95  CG1       14.1090   11.0960    4.3280 C.3   167  ILE167      0.0022
     96  CG2       15.7160   12.7360    5.3760 C.3   167  ILE167      0.0022
     97  CD1       13.1060   12.1400    3.9370 C.3   167  ILE167      0.0001
     98  N         19.9160   13.7570    5.3900 N.3   169  HIS169     -0.1241
     99  CA        19.8700   13.7150    6.8440 C.3   169  HIS169      0.1621
    100  C         21.2260   14.0810    7.4540 C.2   169  HIS169      0.2264
    101  O         21.4850   13.8060    8.6270 O.2   169  HIS169     -0.2867
    102  CB        19.3650   12.3460    7.3180 C.3   169  HIS169      0.0745
    103  CG        20.1570   11.1800    6.8040 C.ar  169  HIS169      0.0817
    104  ND1       20.0290   10.6870    5.5240 N.ar  169  HIS169     -0.2268
    105  CD2       21.0700   10.3920    7.4170 C.ar  169  HIS169      0.1154
    106  CE1       20.8370    9.6540    5.3680 C.ar  169  HIS169      0.1986
    107  NE2       21.4760    9.4520    6.5030 N.ar  169  HIS169     -0.2212
    108  N         23.0250    8.8180   11.5680 N.3   173  ILE173     -0.1245
    109  CA        21.9450    7.8880   11.8360 C.3   173  ILE173      0.1561
    110  C         21.9840    7.5210   13.3080 C.2   173  ILE173      0.2260
    111  O         23.0590    7.3250   13.8840 O.2   173  ILE173     -0.2867
    112  CB        22.0230    6.6460   10.9000 C.3   173  ILE173      0.0252
    113  CG1       20.7480    5.7960   10.9640 C.3   173  ILE173      0.0019
    114  CG2       23.2850    5.8110   11.1550 C.3   173  ILE173      0.0019
    115  CD1       20.5890    4.9140    9.7620 C.3   173  ILE173      0.0001
    116  N         21.0800    4.8120   16.0850 N.3   175  LYS175     -0.1245
    117  CA        20.8370    3.3950   16.2560 C.3   175  LYS175      0.1561
    118  C         20.3850    3.1420   17.6820 C.2   175  LYS175      0.2260
    119  O         21.0890    3.4930   18.6380 O.2   175  LYS175     -0.2867
    120  CB        22.0970    2.5980   15.9320 C.3   175  LYS175      0.0271
    121  CG        22.6180    2.8820   14.5220 C.3   175  LYS175      0.0035
    122  CD        23.7750    1.9910   14.1320 C.3   175  LYS175      0.0206
    123  CE        23.3070    0.5830   13.8260 C.3   175  LYS175      0.1093
    124  NZ        22.6290    0.4120   12.5030 N.3   175  LYS175     -0.1314
    125  N         26.3170    7.6640    8.0760 N.3   190  SER190     -0.1202
    126  CA        25.1650    7.0770    7.4420 C.3   190  SER190      0.2020
    127  C         25.4370    7.0990    5.9350 C.2   190  SER190      0.2618
    128  O         26.3190    6.3670    5.4730 O.2   190  SER190     -0.2717
    129  CB        23.9280    7.8580    7.8970 C.3   190  SER190      0.2103
    130  OG        22.7270    7.3060    7.3940 O.3   190  SER190     -0.2182
    131  N         24.7100    7.9150    5.1820 N.am  191  LEU191     -0.1979
    132  CA        25.0520    8.2130    3.7980 C.3   191  LEU191      0.1596
    133  C         25.1010    9.7180    3.6660 C.2   191  LEU191      0.2287
    134  O         24.3510   10.4300    4.3580 O.2   191  LEU191     -0.2864
    135  CB        23.9860    7.7010    2.8360 C.3   191  LEU191      0.0297
    136  CG        23.7840    6.2090    2.6560 C.3   191  LEU191      0.0022
    137  CD1       22.6140    5.9960    1.7050 C.3   191  LEU191      0.0001
    138  CD2       25.0450    5.5440    2.1330 C.3   191  LEU191      0.0001
    139  N         25.1730    0.9740   -3.9640 N.3   204  PHE204     -0.1241
    140  CA        26.0790    0.6000   -2.8840 C.3   204  PHE204      0.1605
    141  C         25.5140   -0.5940   -2.1410 C.2   204  PHE204      0.2264
    142  O         24.2960   -0.7620   -2.0720 O.2   204  PHE204     -0.2867
    143  CB        26.3190    1.7680   -1.9070 C.3   204  PHE204      0.0534
    144  CG        25.1570    2.0540   -0.9830 C.ar  204  PHE204     -0.0203
    145  CD1       25.1550    1.5860    0.3290 C.ar  204  PHE204     -0.0042
    146  CD2       24.0720    2.8110   -1.4210 C.ar  204  PHE204     -0.0042
    147  CE1       24.0860    1.8560    1.1830 C.ar  204  PHE204     -0.0003
    148  CE2       22.9960    3.0830   -0.5700 C.ar  204  PHE204     -0.0003
    149  CZ        23.0070    2.6040    0.7310 C.ar  204  PHE204     -0.0000
    150  N         25.2720   -1.9150    1.6620 N.3   206  ASN206     -0.1240
    151  CA        25.4550   -1.3480    3.0020 C.3   206  ASN206      0.1653
    152  C         26.5750   -2.0070    3.8050 C.2   206  ASN206      0.2266
    153  O         27.0730   -1.4290    4.7710 O.2   206  ASN206     -0.2867
    154  CB        24.1410   -1.3340    3.8030 C.3   206  ASN206      0.1155
    155  CG        24.1700   -0.3320    4.9600 C.2   206  ASN206      0.2627
    156  OD1       24.4920    0.8430    4.7740 O.2   206  ASN206     -0.2716
    157  ND2       23.8240   -0.7990    6.1560 N.am  206  ASN206     -0.0877
    158  N         16.9060    1.8120   13.3590 N.3   271  ASP271     -0.1239
    159  CA        17.6970    2.8910   12.7560 C.3   271  ASP271      0.1674
    160  C         16.7680    4.0550   12.4320 C.2   271  ASP271      0.2266
    161  O         15.7670    3.8550   11.7420 O.2   271  ASP271     -0.2867
    162  CB        18.3170    2.4540   11.4080 C.3   271  ASP271      0.1410
    163  CG        19.3580    1.3420   11.5220 C.2   271  ASP271      0.3668
    164  OD1       19.8920    1.1090   12.6130 O.co2 271  ASP271     -0.2456
    165  OD2       19.6510    0.7140   10.4770 O.co2 271  ASP271     -0.2456
    166  N         16.6780    8.4040   11.1360 N.3   273  ILE273     -0.1245
    167  CA        17.3430    9.5960   10.6580 C.3   273  ILE273      0.1561
    168  C         16.3920   10.7820   10.8190 C.2   273  ILE273      0.2260
    169  O         15.1900   10.6110   11.0580 O.2   273  ILE273     -0.2867
    170  CB        17.7940    9.4390    9.1770 C.3   273  ILE273      0.0252
    171  CG1       16.5780    9.2420    8.2600 C.3   273  ILE273      0.0019
    172  CG2       18.8330    8.2990    9.0300 C.3   273  ILE273      0.0019
    173  CD1       16.9410    9.1020    6.8120 C.3   273  ILE273      0.0001
    174  N         14.1140    4.0780    9.3790 N.3   284  VAL284     -0.1231
    175  CA        14.5300    3.5630    8.0730 C.3   284  VAL284      0.1692
    176  C         14.8200    2.0640    8.0830 C.2   284  VAL284      0.2592
    177  O         14.9550    1.4550    7.0340 O.2   284  VAL284     -0.2718
    178  CB        15.7340    4.3470    7.4670 C.3   284  VAL284      0.0266
    179  CG1       15.3370    5.7760    7.1620 C.3   284  VAL284      0.0020
    180  CG2       16.9800    4.2900    8.3670 C.3   284  VAL284      0.0020
    181  N         14.9380    1.4640    9.2650 N.am  285  ASP285     -0.1974
    182  CA        15.2900    0.0460    9.3670 C.3   285  ASP285      0.1709
    183  C         14.9450   -0.4610   10.7550 C.2   285  ASP285      0.2293
    184  O         15.1070    0.2550   11.7450 O.2   285  ASP285     -0.2864
    185  CB        16.7980   -0.1090    9.1140 C.3   285  ASP285      0.1436
    186  CG        17.2440   -1.5400    8.8590 C.2   285  ASP285      0.3671
    187  OD1       16.4220   -2.3850    8.4820 O.co2 285  ASP285     -0.2456
    188  OD2       18.4670   -1.7930    9.0170 O.co2 285  ASP285     -0.2456
    189  N         15.7450   -4.2180   12.7210 N.3   287  ASN287     -0.1240
    190  CA        16.4550   -5.4840   12.6030 C.3   287  ASN287      0.1653
    191  C         16.1770   -6.3720   13.7980 C.2   287  ASN287      0.2266
    192  O         16.1140   -5.8970   14.9280 O.2   287  ASN287     -0.2867
    193  CB        17.9630   -5.2250   12.5310 C.3   287  ASN287      0.1155
    194  CG        18.3430   -4.3240   11.3770 C.2   287  ASN287      0.2627
    195  OD1       17.8930   -4.5250   10.2550 O.2   287  ASN287     -0.2716
    196  ND2       19.1710   -3.3250   11.6450 N.am  287  ASN287     -0.0877
@<TRIPOS>BOND
     1    54    53    2
     2   139   140    1
     3    53    52    1
     4   140   141    1
     5   140   143    1
     6    52    51    1
     7    52    55    1
     8    21    20    1
     9    21    22    2
    10    19    20    1
    11    20    23    1
    12   141   142    2
    13   143   144    1
    14    27    28    1
    15    74    76   ar
    16    74    73   ar
    17    30    29    2
    18    76    77   ar
    19   146   144   ar
    20   146   148   ar
    21    55    56    1
    22    29    28    1
    23    59    60    1
    24    82    83    1
    25    82    79    1
    26   144   145   ar
    27    28    31    1
    28    23    24    1
    29    23    25    1
    30    62    61    2
    31    24    26    1
    32   148   149   ar
    33    69    68    1
    34    69    72    1
    35    69    70    1
    36    83    84   ar
    37    83    85   ar
    38    78    79    1
    39    78    70   am
    40    61    68   am
    41    61    60    1
    42    73    72    1
    43    73    75   ar
    44    84    86   ar
    45    77    75   ar
    46    60    63    1
    47    85    87   ar
    48    56    57    1
    49    79    80    1
    50    86    88   ar
    51    70    71    2
    52   145   147   ar
    53    57    58    1
    54    81    80    2
    55    43    44    2
    56    43    42    1
    57    87    88   ar
    58    31    32    1
    59    88    89    1
    60   149   147   ar
    61    80    90   am
    62    32    33    1
    63    63    64    1
    64    41    42    1
    65   150   151    1
    66    42    45    1
    67   137   136    1
    68    90    91    1
    69   138   136    1
    70    10     9    1
    71    64    65    1
    72    33    34    1
    73   136   135    1
    74    45    46    1
    75   135   132    1
    76    34    35    1
    77    91    92    1
    78    91    94    1
    79   151   154    1
    80   151   152    1
    81    92    93    2
    82     7     6    1
    83     7     8    1
    84     5     6    1
    85     5     2    1
    86     9     8    2
    87     9    11    1
    88    65    66    2
    89    65    67   am
    90    36    37    1
    91   133   132    1
    92   133   134    2
    93   132   131    1
    94   154   155    1
    95   152   153    2
    96    46    48   ar
    97    46    47   ar
    98    97    95    1
    99    14    15    2
   100    14    13    1
   101     3     2    1
   102     3     4    2
   103     1     2    1
   104    48    50   ar
   105    16    13    1
   106    16    17    1
   107    95    94    1
   108    94    96    1
   109    37    38    1
   110    37    40    1
   111   156   155    2
   112    47    49   ar
   113    13    12    1
   114   155   157   am
   115   131   127   am
   116    38    39    2
   117   106   104   ar
   118   106   107   ar
   119    50    49   ar
   120    98    99    1
   121   128   127    2
   122    17    18    1
   123   104   103   ar
   124   127   126    1
   125    12    18    1
   126   107   105   ar
   127   103   102    1
   128   103   105   ar
   129   173   171    1
   130    99   102    1
   131    99   100    1
   132   177   176    2
   133   179   178    1
   134   130   129    1
   135   126   129    1
   136   126   125    1
   137   100   101    2
   138   178   175    1
   139   178   180    1
   140   175   176    1
   141   175   174    1
   142   176   181   am
   143   171   170    1
   144   187   186   ar
   145   186   188   ar
   146   186   185    1
   147   172   170    1
   148   185   182    1
   149   170   167    1
   150   181   182    1
   151   182   183    1
   152   115   113    1
   153   195   194    2
   154   165   163   ar
   155   167   168    1
   156   167   166    1
   157   183   184    2
   158   168   169    2
   159   112   113    1
   160   112   114    1
   161   112   109    1
   162   194   196   am
   163   194   193    1
   164   162   163    1
   165   162   159    1
   166   163   164   ar
   167   108   109    1
   168   161   160    2
   169   109   110    1
   170   160   159    1
   171   124   123    1
   172   193   190    1
   173   190   189    1
   174   190   191    1
   175   159   158    1
   176   110   111    2
   177   191   192    2
   178   123   122    1
   179   122   121    1
   180   121   120    1
   181   120   117    1
   182   116   117    1
   183   117   118    1
   184   118   119    2
