@<TRIPOS>MOLECULE
tmp/1z2pA00.pdb
 205 193 0 0 0
SMALL
GASTEIGER

@<TRIPOS>ATOM
      1  N         10.8590   -6.3070    4.1090 N.3    90  ARG90      -0.1245
      2  CA        10.7560   -4.8580    4.2300 C.3    90  ARG90       0.1563
      3  C          9.3070   -4.3850    4.0490 C.2    90  ARG90       0.2260
      4  O          8.8950   -3.4220    4.6880 O.2    90  ARG90      -0.2867
      5  CB        11.7530   -4.1330    3.3070 C.3    90  ARG90       0.0307
      6  CG        13.2170   -4.3690    3.7130 C.3    90  ARG90       0.0489
      7  CD        14.1870   -3.3450    3.1170 C.3    90  ARG90       0.2205
      8  NE        15.5100   -3.4370    3.7460 N.pl3  90  ARG90      -0.0865
      9  CZ        16.5020   -4.2150    3.3220 C.cat  90  ARG90       0.5346
     10  NH1       16.3600   -4.9640    2.2400 N.pl3  90  ARG90       0.1354
     11  NH2       17.6470   -4.2370    3.9780 N.pl3  90  ARG90       0.1354
     12  N         10.1970    7.6060    6.1420 N.3   105  PRO105     -0.2116
     13  CA        10.1510    8.3260    4.8650 C.3   105  PRO105      0.1372
     14  C          9.1280    7.6140    3.9860 C.2   105  PRO105      0.2244
     15  O          8.8960    6.4140    4.1460 O.2   105  PRO105     -0.2868
     16  CB        11.5690    8.1360    4.2950 C.3   105  PRO105      0.0268
     17  CG        12.4220    7.7100    5.4840 C.3   105  PRO105      0.0207
     18  CD        11.4800    6.9080    6.3360 C.3   105  PRO105      0.0892
     19  N         15.5970    5.7220   -2.4630 N.3   130  ILE130     -0.1245
     20  CA        16.4450    4.5650   -2.2810 C.3   130  ILE130      0.1561
     21  C         15.6170    3.3150   -2.5360 C.2   130  ILE130      0.2260
     22  O         14.4330    3.2360   -2.1800 O.2   130  ILE130     -0.2867
     23  CB        17.1270    4.5760   -0.8820 C.3   130  ILE130      0.0252
     24  CG1       18.1740    3.4630   -0.7740 C.3   130  ILE130      0.0019
     25  CG2       16.0950    4.5540    0.2710 C.3   130  ILE130      0.0019
     26  CD1       19.1480    3.6680    0.3630 C.3   130  ILE130      0.0001
     27  N         15.5090   -0.6110   -1.8100 N.3   132  LYS132     -0.1245
     28  CA        16.0090   -1.6600   -0.9160 C.3   132  LYS132      0.1561
     29  C         15.3560   -2.9880   -1.2960 C.2   132  LYS132      0.2260
     30  O         14.1630   -3.0230   -1.6120 O.2   132  LYS132     -0.2867
     31  CB        15.6400   -1.3510    0.5340 C.3   132  LYS132      0.0271
     32  CG        15.9350    0.0710    0.9720 C.3   132  LYS132      0.0035
     33  CD        15.6680    0.2800    2.4570 C.3   132  LYS132      0.0206
     34  CE        15.7920    1.7370    2.8230 C.3   132  LYS132      0.1093
     35  NZ        15.6090    1.9570    4.2810 N.3   132  LYS132     -0.1314
     36  N         15.1640   -8.6920    3.6170 N.3   136  ALA136     -0.1245
     37  CA        15.7920   -7.7390    4.5340 C.3   136  ALA136      0.1562
     38  C         16.9690   -8.2740    5.3400 C.2   136  ALA136      0.2260
     39  O         17.7120   -7.4910    5.9340 O.2   136  ALA136     -0.2867
     40  CB        14.7420   -7.1760    5.4860 C.3   136  ALA136      0.0290
     41  N         21.2570   -6.3770    1.2880 N.3   143  HIS143     -0.1241
     42  CA        21.8090   -5.0640    1.6390 C.3   143  HIS143      0.1621
     43  C         22.3040   -4.2950    0.4190 C.2   143  HIS143      0.2264
     44  O         22.9940   -3.2790    0.5560 O.2   143  HIS143     -0.2867
     45  CB        22.9180   -5.2380    2.6830 C.3   143  HIS143      0.0745
     46  CG        22.4920   -6.0530    3.8610 C.ar  143  HIS143      0.0817
     47  ND1       21.6740   -5.5550    4.8520 N.ar  143  HIS143     -0.2268
     48  CD2       22.7280   -7.3470    4.1840 C.ar  143  HIS143      0.1154
     49  CE1       21.4410   -6.5000    5.7460 C.ar  143  HIS143      0.1986
     50  NE2       22.0700   -7.5970    5.3640 N.ar  143  HIS143     -0.2212
     51  N         21.7840   -1.8520   -2.3800 N.3   145  MET145     -0.1245
     52  CA        20.8970   -0.7000   -2.5530 C.3   145  MET145      0.1570
     53  C         21.1860    0.0990   -3.8210 C.2   145  MET145      0.2261
     54  O         22.3130    0.1330   -4.3080 O.2   145  MET145     -0.2867
     55  CB        21.0290    0.2570   -1.3620 C.3   145  MET145      0.0387
     56  CG        21.0230   -0.3790    0.0220 C.3   145  MET145      0.0595
     57  SD        19.5230   -1.3290    0.2990 S.3   145  MET145     -0.1393
     58  CE        19.6270   -1.6780    2.0400 C.3   145  MET145      0.0692
     59  N         11.8310    3.9820   -1.2880 N.3   164  GLN164     -0.1231
     60  CA        11.6260    4.8580   -0.1450 C.3   164  GLN164      0.1698
     61  C         12.2530    6.2170   -0.4360 C.2   164  GLN164      0.2592
     62  O         13.4130    6.2930   -0.8500 O.2   164  GLN164     -0.2718
     63  CB        12.2410    4.2070    1.0930 C.3   164  GLN164      0.0381
     64  CG        12.0870    5.0200    2.3440 C.3   164  GLN164      0.0905
     65  CD        12.5860    4.2780    3.5580 C.2   164  GLN164      0.2608
     66  OE1       13.7720    4.3150    3.8700 O.2   164  GLN164     -0.2717
     67  NE2       11.6800    3.6030    4.2590 N.am  164  GLN164     -0.0878
     68  N         11.5070    7.2930   -0.2420 N.am  165  HIS165     -0.1962
     69  CA        12.0360    8.6110   -0.5200 C.3   165  HIS165      0.1787
     70  C         13.3530    8.8100    0.2380 C.2   165  HIS165      0.2620
     71  O         13.4630    8.4790    1.4240 O.2   165  HIS165     -0.2715
     72  CB        11.0150    9.6890   -0.1570 C.3   165  HIS165      0.0785
     73  CG        11.5120   11.0770   -0.3920 C.ar  165  HIS165      0.0821
     74  ND1       11.8210   11.5630   -1.6470 N.ar  165  HIS165     -0.2267
     75  CD2       11.7910   12.0760    0.4780 C.ar  165  HIS165      0.1154
     76  CE1       12.2640   12.8030   -1.5370 C.ar  165  HIS165      0.1986
     77  NE2       12.2460   13.1410   -0.2610 N.ar  165  HIS165     -0.2212
     78  N         14.3520    9.3440   -0.4650 N.am  166  TYR166     -0.1960
     79  CA        15.6770    9.5630    0.0890 C.3   166  TYR166      0.1771
     80  C         15.6710   10.8710    0.8480 C.2   166  TYR166      0.2619
     81  O         15.3110   11.9210    0.3060 O.2   166  TYR166     -0.2715
     82  CB        16.7340    9.6190   -1.0170 C.3   166  TYR166      0.0574
     83  CG        18.1480    9.5990   -0.4750 C.ar  166  TYR166     -0.0198
     84  CD1       18.8250    8.4030   -0.3080 C.ar  166  TYR166     -0.0009
     85  CD2       18.7850   10.7760   -0.0910 C.ar  166  TYR166     -0.0009
     86  CE1       20.1170    8.3690    0.2030 C.ar  166  TYR166      0.0417
     87  CE2       20.0790   10.7500    0.4370 C.ar  166  TYR166      0.0417
     88  CZ        20.7300    9.5460    0.5740 C.ar  166  TYR166      0.1957
     89  OH        22.0030    9.4960    1.0820 O.3   166  TYR166     -0.2866
     90  N         16.0760   10.8100    2.1080 N.am  167  ILE167     -0.1977
     91  CA        16.1210   11.9820    2.9690 C.3   167  ILE167      0.1596
     92  C         17.5610   12.4480    3.1190 C.2   167  ILE167      0.2287
     93  O         18.4350   11.6620    3.4860 O.2   167  ILE167     -0.2864
     94  CB        15.5730   11.6120    4.3690 C.3   167  ILE167      0.0276
     95  CG1       14.1250   11.1180    4.2940 C.3   167  ILE167      0.0022
     96  CG2       15.7390   12.7540    5.3710 C.3   167  ILE167      0.0022
     97  CD1       13.1190   12.1620    3.8960 C.3   167  ILE167      0.0001
     98  N         19.9480   13.7990    5.3530 N.3   169  HIS169     -0.1241
     99  CA        19.9180   13.7580    6.8090 C.3   169  HIS169      0.1621
    100  C         21.2710   14.1240    7.4150 C.2   169  HIS169      0.2264
    101  O         21.5310   13.8400    8.5840 O.2   169  HIS169     -0.2867
    102  CB        19.4270   12.3800    7.2840 C.3   169  HIS169      0.0745
    103  CG        20.2130   11.2150    6.7590 C.ar  169  HIS169      0.0817
    104  ND1       20.0620   10.7150    5.4820 N.ar  169  HIS169     -0.2268
    105  CD2       21.1390   10.4300    7.3580 C.ar  169  HIS169      0.1154
    106  CE1       20.8660    9.6790    5.3170 C.ar  169  HIS169      0.1986
    107  NE2       21.5240    9.4830    6.4440 N.ar  169  HIS169     -0.2212
    108  N         23.0670    8.8940   11.5420 N.3   173  ILE173     -0.1245
    109  CA        21.9960    7.9550   11.8160 C.3   173  ILE173      0.1561
    110  C         22.0410    7.5820   13.2890 C.2   173  ILE173      0.2260
    111  O         23.1230    7.3910   13.8530 O.2   173  ILE173     -0.2867
    112  CB        22.0650    6.7090   10.8840 C.3   173  ILE173      0.0252
    113  CG1       20.7960    5.8580   10.9570 C.3   173  ILE173      0.0019
    114  CG2       23.3350    5.8890   11.1030 C.3   173  ILE173      0.0019
    115  CD1       20.6530    5.0000    9.7330 C.3   173  ILE173      0.0001
    116  N         21.1600    4.8440   16.0730 N.3   175  LYS175     -0.1245
    117  CA        20.9200    3.4210   16.2310 C.3   175  LYS175      0.1561
    118  C         20.4840    3.1710   17.6590 C.2   175  LYS175      0.2260
    119  O         21.1910    3.5470   18.6020 O.2   175  LYS175     -0.2867
    120  CB        22.1830    2.6270   15.9010 C.3   175  LYS175      0.0271
    121  CG        22.6880    2.8850   14.4780 C.3   175  LYS175      0.0035
    122  CD        23.8220    1.9610   14.0650 C.3   175  LYS175      0.0206
    123  CE        23.3280    0.5590   13.7910 C.3   175  LYS175      0.1093
    124  NZ        22.6370    0.3250   12.4780 N.3   175  LYS175     -0.1314
    125  N         26.3620    7.7010    8.0370 N.3   190  SER190     -0.1202
    126  CA        25.2060    7.1160    7.4080 C.3   190  SER190      0.2020
    127  C         25.4740    7.1300    5.9000 C.2   190  SER190      0.2618
    128  O         26.3590    6.4020    5.4380 O.2   190  SER190     -0.2717
    129  CB        23.9650    7.9000    7.8550 C.3   190  SER190      0.2103
    130  OG        22.7720    7.3220    7.3580 O.3   190  SER190     -0.2182
    131  N         24.7410    7.9420    5.1470 N.am  191  LEU191     -0.1979
    132  CA        25.0740    8.2240    3.7560 C.3   191  LEU191      0.1596
    133  C         25.1300    9.7280    3.6110 C.2   191  LEU191      0.2287
    134  O         24.4020   10.4460    4.3050 O.2   191  LEU191     -0.2864
    135  CB        23.9910    7.7030    2.8170 C.3   191  LEU191      0.0297
    136  CG        23.8090    6.2110    2.6200 C.3   191  LEU191      0.0022
    137  CD1       22.6400    5.9920    1.6830 C.3   191  LEU191      0.0001
    138  CD2       25.0800    5.5650    2.0790 C.3   191  LEU191      0.0001
    139  N         25.1760    0.9940   -4.0020 N.3   204  PHE204     -0.1241
    140  CA        26.0820    0.6400   -2.9080 C.3   204  PHE204      0.1605
    141  C         25.5290   -0.5530   -2.1590 C.2   204  PHE204      0.2264
    142  O         24.3150   -0.7320   -2.0920 O.2   204  PHE204     -0.2867
    143  CB        26.3050    1.8260   -1.9460 C.3   204  PHE204      0.0534
    144  CG        25.1450    2.1040   -1.0180 C.ar  204  PHE204     -0.0203
    145  CD1       25.1480    1.6190    0.2840 C.ar  204  PHE204     -0.0042
    146  CD2       24.0560    2.8590   -1.4460 C.ar  204  PHE204     -0.0042
    147  CE1       24.0900    1.8820    1.1430 C.ar  204  PHE204     -0.0003
    148  CE2       22.9880    3.1190   -0.5870 C.ar  204  PHE204     -0.0003
    149  CZ        23.0060    2.6280    0.7040 C.ar  204  PHE204     -0.0000
    150  N         25.3290   -1.9090    1.6580 N.3   206  ASN206     -0.1225
    151  CA        25.4930   -1.3450    2.9990 C.3   206  ASN206      0.1785
    152  C         26.6090   -2.0050    3.8000 C.2   206  ASN206      0.2597
    153  O         27.0900   -1.4300    4.7770 O.2   206  ASN206     -0.2718
    154  CB        24.1730   -1.3470    3.7920 C.3   206  ASN206      0.1169
    155  CG        24.1700   -0.3170    4.9290 C.2   206  ASN206      0.2627
    156  OD1       24.4780    0.8580    4.7200 O.2   206  ASN206     -0.2716
    157  ND2       23.8180   -0.7580    6.1320 N.am  206  ASN206     -0.0877
    158  N         27.0200   -3.2010    3.3750 N.am  207  GLN207     -0.1979
    159  CA        28.1500   -3.9040    3.9920 C.3   207  GLN207      0.1601
    160  C         29.4800   -3.5260    3.3400 C.2   207  GLN207      0.2287
    161  O         30.5490   -3.9350    3.8110 O.2   207  GLN207     -0.2864
    162  CB        27.9550   -5.4210    3.9040 C.3   207  GLN207      0.0394
    163  CG        26.7500   -5.9590    4.6700 C.3   207  GLN207      0.0908
    164  CD        26.6080   -7.4700    4.5710 C.2   207  GLN207      0.2608
    165  OE1       27.3030   -8.1260    3.7900 O.2   207  GLN207     -0.2717
    166  NE2       25.7040   -8.0300    5.3660 N.am  207  GLN207     -0.0878
    167  N         16.9840    1.8570   13.3520 N.3   271  ASP271     -0.1239
    168  CA        17.7710    2.9320   12.7370 C.3   271  ASP271      0.1674
    169  C         16.8360    4.0810   12.4030 C.2   271  ASP271      0.2266
    170  O         15.8240    3.8660   11.7280 O.2   271  ASP271     -0.2867
    171  CB        18.3860    2.4930   11.3860 C.3   271  ASP271      0.1410
    172  CG        19.4160    1.3740   11.4920 C.2   271  ASP271      0.3668
    173  OD1       19.9460    1.1380   12.5870 O.co2 271  ASP271     -0.2456
    174  OD2       19.7140    0.7520   10.4360 O.co2 271  ASP271     -0.2456
    175  N         16.7270    8.4470   11.1120 N.3   273  ILE273     -0.1245
    176  CA        17.3830    9.6460   10.6310 C.3   273  ILE273      0.1561
    177  C         16.4320   10.8320   10.8030 C.2   273  ILE273      0.2260
    178  O         15.2370   10.6460   11.0560 O.2   273  ILE273     -0.2867
    179  CB        17.8150    9.4780    9.1510 C.3   273  ILE273      0.0252
    180  CG1       16.5960    9.2870    8.2420 C.3   273  ILE273      0.0019
    181  CG2       18.8410    8.3230    8.9970 C.3   273  ILE273      0.0019
    182  CD1       16.9510    9.1500    6.7830 C.3   273  ILE273      0.0001
    183  N         14.1680    4.1120    9.3520 N.3   284  VAL284     -0.1231
    184  CA        14.5790    3.5860    8.0550 C.3   284  VAL284      0.1692
    185  C         14.8600    2.0910    8.0610 C.2   284  VAL284      0.2592
    186  O         14.9760    1.4930    7.0030 O.2   284  VAL284     -0.2718
    187  CB        15.7710    4.3710    7.4410 C.3   284  VAL284      0.0266
    188  CG1       15.3520    5.8090    7.1400 C.3   284  VAL284      0.0020
    189  CG2       17.0090    4.3100    8.3420 C.3   284  VAL284      0.0020
    190  N         14.9880    1.4820    9.2370 N.am  285  ASP285     -0.1974
    191  CA        15.3250    0.0580    9.3270 C.3   285  ASP285      0.1709
    192  C         15.0060   -0.4440   10.7240 C.2   285  ASP285      0.2293
    193  O         15.1930    0.2720   11.7120 O.2   285  ASP285     -0.2864
    194  CB        16.8270   -0.1000    9.0440 C.3   285  ASP285      0.1436
    195  CG        17.2680   -1.5330    8.8010 C.2   285  ASP285      0.3671
    196  OD1       16.4510   -2.3790    8.4140 O.co2 285  ASP285     -0.2456
    197  OD2       18.4880   -1.7790    8.9870 O.co2 285  ASP285     -0.2456
    198  N         15.7880   -4.2130   12.7030 N.3   287  ASN287     -0.1240
    199  CA        16.4850   -5.4830   12.5750 C.3   287  ASN287      0.1653
    200  C         16.2340   -6.3680   13.7720 C.2   287  ASN287      0.2266
    201  O         16.2360   -5.9000   14.9060 O.2   287  ASN287     -0.2867
    202  CB        17.9840   -5.2290   12.4680 C.3   287  ASN287      0.1155
    203  CG        18.3300   -4.3020   11.3330 C.2   287  ASN287      0.2627
    204  OD1       17.9270   -4.5280   10.1970 O.2   287  ASN287     -0.2716
    205  ND2       19.0750   -3.2440   11.6320 N.am  287  ASN287     -0.0877
@<TRIPOS>BOND
     1    54    53    2
     2   139   140    1
     3    53    52    1
     4   140   141    1
     5   140   143    1
     6    52    51    1
     7    52    55    1
     8    21    20    1
     9    21    22    2
    10    19    20    1
    11    20    23    1
    12   141   142    2
    13   143   144    1
    14    27    28    1
    15    74    76   ar
    16    74    73   ar
    17    30    29    2
    18    76    77   ar
    19   146   144   ar
    20   146   148   ar
    21    55    56    1
    22    29    28    1
    23    59    60    1
    24   144   145   ar
    25    82    83    1
    26    82    79    1
    27    28    31    1
    28    23    24    1
    29    23    25    1
    30    62    61    2
    31    24    26    1
    32   148   149   ar
    33    69    68    1
    34    69    72    1
    35    69    70    1
    36    83    84   ar
    37    83    85   ar
    38    78    79    1
    39    78    70   am
    40    61    68   am
    41    61    60    1
    42    73    72    1
    43    73    75   ar
    44    84    86   ar
    45    77    75   ar
    46    60    63    1
    47    85    87   ar
    48    56    57    1
    49    79    80    1
    50    86    88   ar
    51    70    71    2
    52   145   147   ar
    53    57    58    1
    54    81    80    2
    55    43    44    2
    56    43    42    1
    57    87    88   ar
    58    31    32    1
    59    88    89    1
    60   149   147   ar
    61    80    90   am
    62    32    33    1
    63    63    64    1
    64    41    42    1
    65    42    45    1
    66   150   151    1
    67   137   136    1
    68   138   136    1
    69    90    91    1
    70    10     9    1
    71    64    65    1
    72    33    34    1
    73   136   135    1
    74    45    46    1
    75   135   132    1
    76    34    35    1
    77    91    92    1
    78    91    94    1
    79   151   154    1
    80   151   152    1
    81     7     6    1
    82     7     8    1
    83    92    93    2
    84     5     6    1
    85     5     2    1
    86     9     8    2
    87     9    11    1
    88   160   161    2
    89   160   159    1
    90   158   152   am
    91   158   159    1
    92    65    66    2
    93    65    67   am
    94   133   132    1
    95   133   134    2
    96    36    37    1
    97   132   131    1
    98   165   164    2
    99   154   155    1
   100   152   153    2
   101    46    48   ar
   102    46    47   ar
   103    97    95    1
   104   162   159    1
   105   162   163    1
   106    14    15    2
   107    14    13    1
   108     3     2    1
   109     3     4    2
   110     1     2    1
   111    48    50   ar
   112    95    94    1
   113    16    13    1
   114    16    17    1
   115    94    96    1
   116    37    38    1
   117    37    40    1
   118   164   163    1
   119   164   166   am
   120   156   155    2
   121    47    49   ar
   122    13    12    1
   123   155   157   am
   124   131   127   am
   125   106   104   ar
   126   106   107   ar
   127    38    39    2
   128    98    99    1
   129    50    49   ar
   130   128   127    2
   131   104   103   ar
   132    17    18    1
   133   127   126    1
   134    12    18    1
   135   107   105   ar
   136   103   102    1
   137   103   105   ar
   138   182   180    1
   139    99   102    1
   140    99   100    1
   141   186   185    2
   142   188   187    1
   143   130   129    1
   144   126   129    1
   145   126   125    1
   146   100   101    2
   147   187   184    1
   148   187   189    1
   149   184   185    1
   150   184   183    1
   151   185   190   am
   152   180   179    1
   153   196   195   ar
   154   195   197   ar
   155   195   194    1
   156   181   179    1
   157   194   191    1
   158   179   176    1
   159   190   191    1
   160   191   192    1
   161   115   113    1
   162   204   203    2
   163   174   172   ar
   164   176   177    1
   165   176   175    1
   166   192   193    2
   167   177   178    2
   168   112   113    1
   169   112   114    1
   170   112   109    1
   171   203   205   am
   172   203   202    1
   173   171   172    1
   174   171   168    1
   175   172   173   ar
   176   108   109    1
   177   170   169    2
   178   109   110    1
   179   169   168    1
   180   202   199    1
   181   124   123    1
   182   199   198    1
   183   199   200    1
   184   168   167    1
   185   110   111    2
   186   200   201    2
   187   123   122    1
   188   122   121    1
   189   121   120    1
   190   120   117    1
   191   116   117    1
   192   117   118    1
   193   118   119    2
