@<TRIPOS>MOLECULE
tmp/1z2pA01.pdb
 161 149 0 0 0
SMALL
GASTEIGER

@<TRIPOS>ATOM
      1  N         29.6350  -18.1750   14.5580 N.3    12  SER12      -0.1202
      2  CA        29.7710  -16.9250   13.7950 C.3    12  SER12       0.2020
      3  C         29.1220  -15.7320   14.5030 C.2    12  SER12       0.2618
      4  O         29.7020  -14.6450   14.5630 O.2    12  SER12      -0.2717
      5  CB        29.1970  -17.0800   12.3840 C.3    12  SER12       0.2103
      6  OG        27.8010  -17.3230   12.4220 O.3    12  SER12      -0.2182
      7  N         27.9220  -15.9490   15.0410 N.am   13  LYS13      -0.1979
      8  CA        27.1830  -14.9100   15.7560 C.3    13  LYS13       0.1596
      9  C         27.7290  -14.7070   17.1690 C.2    13  LYS13       0.2287
     10  O         27.7940  -13.5770   17.6540 O.2    13  LYS13      -0.2864
     11  CB        25.6820  -15.2390   15.7800 C.3    13  LYS13       0.0298
     12  CG        24.8000  -14.2470   16.5520 C.3    13  LYS13       0.0038
     13  CD        24.7230  -12.8730   15.8920 C.3    13  LYS13       0.0206
     14  CE        23.7480  -11.9650   16.6360 C.3    13  LYS13       0.1093
     15  NZ        23.6050  -10.6510   15.9550 N.3    13  LYS13      -0.1314
     16  N         30.8470  -12.3800   16.8330 N.3    16  THR16      -0.1218
     17  CA        30.5640  -10.9680   16.5530 C.3    16  THR16       0.1862
     18  C         29.8180  -10.2890   17.7010 C.2    16  THR16       0.2287
     19  O         30.0110   -9.0980   17.9580 O.2    16  THR16      -0.2866
     20  CB        29.7850  -10.7680   15.2300 C.3    16  THR16       0.1770
     21  OG1       28.5630  -11.5200   15.2580 O.3    16  THR16      -0.2211
     22  CG2       30.6270  -11.1990   14.0340 C.3    16  THR16       0.0375
     23  N         19.0700  -15.9970   17.1820 N.3    53  LYS53      -0.1245
     24  CA        18.9920  -15.3060   15.9080 C.3    53  LYS53       0.1561
     25  C         19.1660  -16.3540   14.8170 C.2    53  LYS53       0.2260
     26  O         20.1750  -17.0640   14.7790 O.2    53  LYS53      -0.2867
     27  CB        20.0630  -14.2110   15.7660 C.3    53  LYS53       0.0271
     28  CG        19.9920  -13.5190   14.4000 C.3    53  LYS53       0.0035
     29  CD        20.9110  -12.3230   14.2450 C.3    53  LYS53       0.0206
     30  CE        20.3750  -11.2880   13.2380 C.3    53  LYS53       0.1093
     31  NZ        19.4840  -11.8850   12.2210 N.3    53  LYS53      -0.1314
     32  N         20.2260  -17.5220   11.4430 N.3    55  THR55      -0.1218
     33  CA        21.3190  -17.0130   10.6070 C.3    55  THR55       0.1862
     34  C         20.8550  -16.6860    9.1830 C.2    55  THR55       0.2287
     35  O         21.2580  -15.6650    8.6110 O.2    55  THR55      -0.2866
     36  CB        22.5050  -18.0070   10.5640 C.3    55  THR55       0.1770
     37  OG1       22.7440  -18.5250   11.8800 O.3    55  THR55      -0.2211
     38  CG2       23.7750  -17.3360   10.0380 C.3    55  THR55       0.0375
     39  N         15.1640   -8.6920    3.6170 N.3   136  ALA136     -0.1231
     40  CA        15.7920   -7.7390    4.5340 C.3   136  ALA136      0.1694
     41  C         16.9690   -8.2740    5.3400 C.2   136  ALA136      0.2592
     42  O         17.7120   -7.4910    5.9340 O.2   136  ALA136     -0.2718
     43  CB        14.7420   -7.1760    5.4860 C.3   136  ALA136      0.0304
     44  N         17.1320   -9.5970    5.3880 N.am  137  GLN137     -0.1966
     45  CA        18.0500  -10.2120    6.3540 C.3   137  GLN137      0.1733
     46  C         18.5940  -11.5560    5.8790 C.2   137  GLN137      0.2617
     47  O         17.8460  -12.3820    5.3530 O.2   137  GLN137     -0.2715
     48  CB        17.3410  -10.3810    7.7090 C.3   137  GLN137      0.0408
     49  CG        18.2440  -10.7470    8.8870 C.3   137  GLN137      0.0908
     50  CD        18.1940  -12.2260    9.2450 C.2   137  GLN137      0.2608
     51  OE1       17.1170  -12.7960    9.4630 O.2   137  GLN137     -0.2717
     52  NE2       19.3650  -12.8480    9.3410 N.am  137  GLN137     -0.0878
     53  N         19.8990  -11.7580    6.0520 N.am  138  GLY138     -0.1940
     54  CA        20.4940  -13.0870    5.8810 C.3   138  GLY138      0.2014
     55  C         21.3750  -13.3380    4.6700 C.2   138  GLY138      0.2639
     56  O         21.9460  -14.4290    4.5430 O.2   138  GLY138     -0.2714
     57  N         21.4820  -12.3560    3.7780 N.am  139  THR139     -0.1950
     58  CA        22.3310  -12.4650    2.5840 C.3   139  THR139      0.1897
     59  C         23.0280  -11.1430    2.2730 C.2   139  THR139      0.2313
     60  O         22.5940  -10.0880    2.7390 O.2   139  THR139     -0.2863
     61  CB        21.5210  -12.8610    1.3220 C.3   139  THR139      0.1794
     62  OG1       20.4440  -11.9330    1.1300 O.3   139  THR139     -0.2208
     63  CG2       20.9690  -14.2800    1.4250 C.3   139  THR139      0.0378
     64  N         21.2570   -6.3770    1.2880 N.3   143  HIS143     -0.1241
     65  CA        21.8090   -5.0640    1.6390 C.3   143  HIS143      0.1621
     66  C         22.3040   -4.2950    0.4190 C.2   143  HIS143      0.2264
     67  O         22.9940   -3.2790    0.5560 O.2   143  HIS143     -0.2867
     68  CB        22.9180   -5.2380    2.6830 C.3   143  HIS143      0.0745
     69  CG        22.4920   -6.0530    3.8610 C.ar  143  HIS143      0.0817
     70  ND1       21.6740   -5.5550    4.8520 N.ar  143  HIS143     -0.2268
     71  CD2       22.7280   -7.3470    4.1840 C.ar  143  HIS143      0.1154
     72  CE1       21.4410   -6.5000    5.7460 C.ar  143  HIS143      0.1986
     73  NE2       22.0700   -7.5970    5.3640 N.ar  143  HIS143     -0.2212
     74  N         21.1600    4.8440   16.0730 N.3   175  LYS175     -0.1245
     75  CA        20.9200    3.4210   16.2310 C.3   175  LYS175      0.1561
     76  C         20.4840    3.1710   17.6590 C.2   175  LYS175      0.2260
     77  O         21.1910    3.5470   18.6020 O.2   175  LYS175     -0.2867
     78  CB        22.1830    2.6270   15.9010 C.3   175  LYS175      0.0271
     79  CG        22.6880    2.8850   14.4780 C.3   175  LYS175      0.0035
     80  CD        23.8220    1.9610   14.0650 C.3   175  LYS175      0.0206
     81  CE        23.3280    0.5590   13.7910 C.3   175  LYS175      0.1093
     82  NZ        22.6370    0.3250   12.4780 N.3   175  LYS175     -0.1314
     83  N         19.3590    0.1070   20.1340 N.3   177  PHE177     -0.1241
     84  CA        19.3270   -1.3380   20.3200 C.3   177  PHE177      0.1605
     85  C         18.5050   -1.6620   21.5550 C.2   177  PHE177      0.2264
     86  O         18.6710   -1.0250   22.5950 O.2   177  PHE177     -0.2867
     87  CB        20.7430   -1.8810   20.4940 C.3   177  PHE177      0.0534
     88  CG        21.6820   -1.5250   19.3740 C.ar  177  PHE177     -0.0203
     89  CD1       21.5990   -2.1620   18.1410 C.ar  177  PHE177     -0.0042
     90  CD2       22.6770   -0.5710   19.5580 C.ar  177  PHE177     -0.0042
     91  CE1       22.4930   -1.8360   17.1070 C.ar  177  PHE177     -0.0003
     92  CE2       23.5540   -0.2400   18.5220 C.ar  177  PHE177     -0.0003
     93  CZ        23.4600   -0.8780   17.3090 C.ar  177  PHE177     -0.0000
     94  N         25.9780    7.0670   14.2790 N.3   188  ARG188     -0.1245
     95  CA        27.0010    6.6870   13.3070 C.3   188  ARG188      0.1563
     96  C         26.8870    7.5850   12.0860 C.2   188  ARG188      0.2260
     97  O         25.8590    8.2350   11.8750 O.2   188  ARG188     -0.2867
     98  CB        26.8750    5.2120   12.8920 C.3   188  ARG188      0.0307
     99  CG        26.9410    4.2320   14.0510 C.3   188  ARG188      0.0489
    100  CD        27.1950    2.8160   13.5890 C.3   188  ARG188      0.2205
    101  NE        28.6110    2.5600   13.2970 N.pl3 188  ARG188     -0.0865
    102  CZ        29.5410    2.2620   14.2080 C.cat 188  ARG188      0.5346
    103  NH1       29.2330    2.1770   15.4950 N.pl3 188  ARG188      0.1354
    104  NH2       30.7950    2.0520   13.8260 N.pl3 188  ARG188      0.1354
    105  N         27.0200   -3.2010    3.3750 N.3   207  GLN207     -0.1245
    106  CA        28.1500   -3.9040    3.9920 C.3   207  GLN207      0.1566
    107  C         29.4800   -3.5260    3.3400 C.2   207  GLN207      0.2260
    108  O         30.5490   -3.9350    3.8110 O.2   207  GLN207     -0.2867
    109  CB        27.9550   -5.4210    3.9040 C.3   207  GLN207      0.0367
    110  CG        26.7500   -5.9590    4.6700 C.3   207  GLN207      0.0905
    111  CD        26.6080   -7.4700    4.5710 C.2   207  GLN207      0.2608
    112  OE1       27.3030   -8.1260    3.7900 O.2   207  GLN207     -0.2717
    113  NE2       25.7040   -8.0300    5.3660 N.am  207  GLN207     -0.0878
    114  N         17.0190   -3.8720   16.7280 N.3   269  GLY269     -0.1225
    115  CA        17.7220   -2.6220   16.5140 C.3   269  GLY269      0.1811
    116  C         16.8780   -1.7530   15.6110 C.2   269  GLY269      0.2280
    117  O         16.2600   -2.2410   14.6700 O.2   269  GLY269     -0.2866
    118  N         16.9840    1.8570   13.3520 N.3   271  ASP271     -0.1239
    119  CA        17.7710    2.9320   12.7370 C.3   271  ASP271      0.1674
    120  C         16.8360    4.0810   12.4030 C.2   271  ASP271      0.2266
    121  O         15.8240    3.8660   11.7280 O.2   271  ASP271     -0.2867
    122  CB        18.3860    2.4930   11.3860 C.3   271  ASP271      0.1410
    123  CG        19.4160    1.3740   11.4920 C.2   271  ASP271      0.3668
    124  OD1       19.9460    1.1380   12.5870 O.co2 271  ASP271     -0.2456
    125  OD2       19.7140    0.7520   10.4360 O.co2 271  ASP271     -0.2456
    126  N         14.9880    1.4820    9.2370 N.3   285  ASP285     -0.1239
    127  CA        15.3250    0.0580    9.3270 C.3   285  ASP285      0.1674
    128  C         15.0060   -0.4440   10.7240 C.2   285  ASP285      0.2266
    129  O         15.1930    0.2720   11.7120 O.2   285  ASP285     -0.2867
    130  CB        16.8270   -0.1000    9.0440 C.3   285  ASP285      0.1410
    131  CG        17.2680   -1.5330    8.8010 C.2   285  ASP285      0.3668
    132  OD1       16.4510   -2.3790    8.4140 O.co2 285  ASP285     -0.2456
    133  OD2       18.4880   -1.7790    8.9870 O.co2 285  ASP285     -0.2456
    134  N         15.7880   -4.2130   12.7030 N.3   287  ASN287     -0.1225
    135  CA        16.4850   -5.4830   12.5750 C.3   287  ASN287      0.1785
    136  C         16.2340   -6.3680   13.7720 C.2   287  ASN287      0.2597
    137  O         16.2360   -5.9000   14.9060 O.2   287  ASN287     -0.2718
    138  CB        17.9840   -5.2290   12.4680 C.3   287  ASN287      0.1169
    139  CG        18.3300   -4.3020   11.3330 C.2   287  ASN287      0.2627
    140  OD1       17.9270   -4.5280   10.1970 O.2   287  ASN287     -0.2716
    141  ND2       19.0750   -3.2440   11.6320 N.am  287  ASN287     -0.0877
    142  N         16.0500   -7.6570   13.5200 N.am  288  VAL288     -0.1980
    143  CA        15.9110   -8.6220   14.6070 C.3   288  VAL288      0.1595
    144  C         17.2810   -8.9650   15.2010 C.2   288  VAL288      0.2287
    145  O         18.2470   -9.1570   14.4660 O.2   288  VAL288     -0.2864
    146  CB        15.1450   -9.8950   14.1440 C.3   288  VAL288      0.0276
    147  CG1       15.9700  -10.7490   13.1860 C.3   288  VAL288      0.0022
    148  CG2       14.6950  -10.7250   15.3350 C.3   288  VAL288      0.0022
    149  N         20.0660   -7.6600   16.6930 N.3   290  PRO290     -0.2102
    150  CA        21.1490   -6.9610   16.0020 C.3   290  PRO290      0.1504
    151  C         22.5420   -7.1510   16.6090 C.2   290  PRO290      0.2576
    152  O         22.7530   -8.0430   17.4380 O.2   290  PRO290     -0.2718
    153  CB        20.7300   -5.4940   16.1430 C.3   290  PRO290      0.0282
    154  CG        20.0460   -5.4390   17.4340 C.3   290  PRO290      0.0208
    155  CD        19.2540   -6.7180   17.4860 C.3   290  PRO290      0.0893
    156  N         23.4630   -6.2800   16.1820 N.am  291  SER291     -0.1953
    157  CA        24.8690   -6.2900   16.5920 C.3   291  SER291      0.1924
    158  C         25.0820   -5.7800   18.0170 C.2   291  SER291      0.2314
    159  O         26.0990   -6.0930   18.6400 O.2   291  SER291     -0.2863
    160  CB        25.7040   -5.4340   15.6260 C.3   291  SER291      0.2116
    161  OG        25.4130   -4.0450   15.7620 O.3   291  SER291     -0.2180
@<TRIPOS>BOND
     1    66    67    2
     2    66    65    1
     3    62    61    1
     4    64    65    1
     5    61    63    1
     6    61    58    1
     7    65    68    1
     8    59    58    1
     9    59    60    2
    10    58    57    1
    11    68    69    1
    12   107   108    2
    13   107   106    1
    14   105   106    1
    15    39    40    1
    16    57    55   am
    17   112   111    2
    18    69    71   ar
    19    69    70   ar
    20   109   106    1
    21   109   110    1
    22    71    73   ar
    23    40    41    1
    24    40    43    1
    25    56    55    2
    26   111   110    1
    27   111   113   am
    28    55    54    1
    29    70    72   ar
    30    41    44   am
    31    41    42    2
    32    47    46    2
    33    73    72   ar
    34    44    45    1
    35    46    53   am
    36    46    45    1
    37    54    53    1
    38    45    48    1
    39    48    49    1
    40   132   131   ar
    41    35    34    2
    42   131   133   ar
    43   131   130    1
    44    49    50    1
    45   130   127    1
    46    34    33    1
    47   126   127    1
    48    50    52   am
    49    50    51    2
    50   127   128    1
    51    38    36    1
    52   140   139    2
    53   125   123   ar
    54    36    33    1
    55    36    37    1
    56    33    32    1
    57   128   129    2
    58   139   141   am
    59   139   138    1
    60   122   123    1
    61   122   119    1
    62   123   124   ar
    63   121   120    2
    64    97    96    2
    65    96    95    1
    66    31    30    1
    67     5     6    1
    68     5     2    1
    69   120   119    1
    70   138   135    1
    71    82    81    1
    72   135   134    1
    73   135   136    1
    74   119   118    1
    75    98    95    1
    76    98    99    1
    77   147   146    1
    78    30    29    1
    79   101   100    1
    80   101   102    2
    81    95    94    1
    82   142   136   am
    83   142   143    1
    84   100    99    1
    85   136   137    2
    86    81    80    1
    87     2     3    1
    88     2     1    1
    89   104   102    1
    90    22    20    1
    91    80    79    1
    92   146   143    1
    93   146   148    1
    94   102   103    1
    95    29    28    1
    96    28    27    1
    97   145   144    2
    98    79    78    1
    99     3     4    2
   100     3     7   am
   101   143   144    1
   102   117   116    2
   103    26    25    2
   104    25    24    1
   105     7     8    1
   106    20    21    1
   107    20    17    1
   108   116   115    1
   109   160   161    1
   110   160   157    1
   111     8    11    1
   112     8     9    1
   113    27    24    1
   114    11    12    1
   115    13    12    1
   116    13    14    1
   117    78    75    1
   118    24    23    1
   119    15    14    1
   120   150   153    1
   121   150   151    1
   122   150   149    1
   123    74    75    1
   124   153   154    1
   125   156   157    1
   126   156   151   am
   127    75    76    1
   128   115   114    1
   129    17    16    1
   130    17    18    1
   131   157   158    1
   132   151   152    2
   133   149   155    1
   134    91    93   ar
   135    91    89   ar
   136     9    10    2
   137    93    92   ar
   138   154   155    1
   139    76    77    2
   140    18    19    2
   141   158   159    2
   142    89    88   ar
   143    92    90   ar
   144    88    90   ar
   145    88    87    1
   146    83    84    1
   147    84    87    1
   148    84    85    1
   149    85    86    2
