@<TRIPOS>MOLECULE
tmp/1z32A00.pdb
 181 177 0 0 0
SMALL
GASTEIGER

@<TRIPOS>ATOM
      1  N         -2.7360   48.3980   26.2310 N.3    57  TRP57      -0.1227
      2  CA        -2.2710   49.1550   25.0750 C.3    57  TRP57       0.1737
      3  C         -1.7980   48.1840   23.9870 C.2    57  TRP57       0.2595
      4  O         -1.9970   48.4290   22.7850 O.2    57  TRP57      -0.2718
      5  CB        -1.1600   50.1440   25.4620 C.3    57  TRP57       0.0564
      6  CG         0.0400   49.4580   26.0550 C.ar   57  TRP57       0.0003
      7  CD1        0.2380   49.1530   27.3730 C.ar   57  TRP57       0.0946
      8  CD2        1.1750   48.9430   25.3480 C.ar   57  TRP57       0.0152
      9  NE1        1.4320   48.4940   27.5330 N.ar   57  TRP57      -0.2442
     10  CE2        2.0300   48.3470   26.3070 C.ar   57  TRP57       0.0810
     11  CE3        1.5710   48.9380   23.9990 C.ar   57  TRP57       0.0012
     12  CZ2        3.2540   47.7530   25.9630 C.ar   57  TRP57       0.0191
     13  CZ3        2.7770   48.3310   23.6510 C.ar   57  TRP57       0.0001
     14  CH2        3.6060   47.7490   24.6360 C.ar   57  TRP57       0.0015
     15  N         -1.1980   47.0670   24.4050 N.am   58  TRP58      -0.1976
     16  CA        -0.5690   46.1640   23.4460 C.3    58  TRP58       0.1640
     17  C         -1.5390   45.3470   22.5890 C.2    58  TRP58       0.2290
     18  O         -1.1010   44.6530   21.6660 O.2    58  TRP58      -0.2864
     19  CB         0.5300   45.3020   24.0840 C.3    58  TRP58       0.0576
     20  CG         0.2160   44.6090   25.3840 C.ar   58  TRP58       0.0006
     21  CD1        0.6980   44.9380   26.6270 C.ar   58  TRP58       0.0946
     22  CD2       -0.5630   43.4190   25.5630 C.ar   58  TRP58       0.0152
     23  NE1        0.2310   44.0510   27.5700 N.ar   58  TRP58      -0.2442
     24  CE2       -0.5410   43.1060   26.9430 C.ar   58  TRP58       0.0810
     25  CE3       -1.3000   42.5940   24.7010 C.ar   58  TRP58       0.0012
     26  CZ2       -1.2210   42.0070   27.4750 C.ar   58  TRP58       0.0191
     27  CZ3       -1.9680   41.4980   25.2340 C.ar   58  TRP58       0.0001
     28  CH2       -1.9220   41.2190   26.6080 C.ar   58  TRP58       0.0015
     29  N         -1.2400   45.8360   18.8210 N.3    61  TYR61      -0.1227
     30  CA        -0.1580   45.1960   18.0790 C.3    61  TYR61       0.1736
     31  C         -0.5080   43.7620   17.6860 C.2    61  TYR61       0.2595
     32  O          0.3580   42.9850   17.2810 O.2    61  TYR61      -0.2718
     33  CB         1.1810   45.3580   18.8280 C.3    61  TYR61       0.0548
     34  CG         1.5440   46.8250   18.8400 C.ar   61  TYR61      -0.0200
     35  CD1        2.1690   47.4080   17.7410 C.ar   61  TYR61      -0.0009
     36  CD2        1.1810   47.6430   19.9110 C.ar   61  TYR61      -0.0009
     37  CE1        2.4560   48.7720   17.7170 C.ar   61  TYR61       0.0417
     38  CE2        1.4580   49.0080   19.8970 C.ar   61  TYR61       0.0417
     39  CZ         2.0990   49.5560   18.8010 C.ar   61  TYR61       0.1957
     40  OH         2.3520   50.8990   18.7950 O.3    61  TYR61      -0.2866
     41  N         -1.8070   43.4580   17.7710 N.am   62  GLN62      -0.1979
     42  CA        -2.3900   42.1720   17.3460 C.3    62  GLN62       0.1601
     43  C         -3.5210   42.3900   16.3160 C.2    62  GLN62       0.2287
     44  O         -4.7040   42.4270   16.6760 O.2    62  GLN62      -0.2864
     45  CB        -2.8790   41.3840   18.5770 C.3    62  GLN62       0.0394
     46  CG        -1.7330   41.0180   19.5260 C.3    62  GLN62       0.0908
     47  CD        -2.0860   39.9570   20.5400 C.2    62  GLN62       0.2608
     48  OE1       -2.7950   38.9980   20.2250 O.2    62  GLN62      -0.2717
     49  NE2       -1.5760   40.1150   21.7620 N.am   62  GLN62      -0.0878
     50  N          2.8440   40.5340   11.4550 N.3   100  HIS100     -0.1241
     51  CA         2.0540   39.4930   12.1010 C.3   100  HIS100      0.1621
     52  C          0.5850   39.8540   12.2000 C.2   100  HIS100      0.2264
     53  O          0.2030   41.0150   12.0250 O.2   100  HIS100     -0.2867
     54  CB         2.6080   39.2250   13.5140 C.3   100  HIS100      0.0745
     55  CG         2.7760   40.4640   14.3400 C.ar  100  HIS100      0.0817
     56  ND1        3.9740   41.1400   14.4280 N.ar  100  HIS100     -0.2268
     57  CD2        1.9000   41.1530   15.1060 C.ar  100  HIS100      0.1154
     58  CE1        3.8300   42.1880   15.2210 C.ar  100  HIS100      0.1986
     59  NE2        2.5820   42.2210   15.6440 N.ar  100  HIS100     -0.2212
     60  N         17.6300   34.5930   19.5190 N.3   150  MET150     -0.1245
     61  CA        17.9290   35.7670   18.6900 C.3   150  MET150      0.1570
     62  C         19.3240   35.7770   18.0470 C.2   150  MET150      0.2261
     63  O         19.6240   36.6520   17.2330 O.2   150  MET150     -0.2867
     64  CB        17.6750   37.0670   19.4660 C.3   150  MET150      0.0387
     65  CG        16.2250   37.2520   19.9140 C.3   150  MET150      0.0595
     66  SD        15.2750   38.3380   18.8230 S.3   150  MET150     -0.1393
     67  CE        13.6590   38.1260   19.4840 C.3   150  MET150      0.0692
     68  N          6.9350   35.8600   16.8500 N.3   161  LEU161     -0.1231
     69  CA         7.3940   36.7450   17.9290 C.3   161  LEU161      0.1693
     70  C          6.4340   36.6090   19.1060 C.2   161  LEU161      0.2592
     71  O          5.2980   37.0740   19.0320 O.2   161  LEU161     -0.2718
     72  CB         7.4650   38.2020   17.4440 C.3   161  LEU161      0.0284
     73  CG         7.8050   39.3100   18.4540 C.3   161  LEU161      0.0019
     74  CD1        9.2020   39.1360   19.0430 C.3   161  LEU161      0.0001
     75  CD2        7.6710   40.6700   17.7830 C.3   161  LEU161      0.0001
     76  N          6.8850   35.9470   20.1750 N.am  162  SER162     -0.1952
     77  CA         6.0580   35.7170   21.3630 C.3   162  SER162      0.1924
     78  C          4.6790   35.1200   21.0270 C.2   162  SER162      0.2314
     79  O          3.6690   35.4730   21.6410 O.2   162  SER162     -0.2863
     80  CB         5.8980   37.0160   22.1630 C.3   162  SER162      0.2116
     81  OG         7.1390   37.4300   22.6990 O.3   162  SER162     -0.2180
     82  N          2.9870   35.5020   18.2130 N.3   164  LEU164     -0.1245
     83  CA         2.2280   36.2590   17.2150 C.3   164  LEU164      0.1561
     84  C          2.3180   35.5700   15.8530 C.2   164  LEU164      0.2260
     85  O          3.4110   35.3430   15.3510 O.2   164  LEU164     -0.2867
     86  CB         2.7410   37.7050   17.1170 C.3   164  LEU164      0.0270
     87  CG         2.5510   38.6000   18.3420 C.3   164  LEU164      0.0019
     88  CD1        3.4880   39.8060   18.2760 C.3   164  LEU164      0.0001
     89  CD2        1.1060   39.0470   18.4740 C.3   164  LEU164      0.0001
     90  N          5.8620   54.3510   10.5430 N.3   194  ARG194     -0.1245
     91  CA         6.7310   53.6610   11.4870 C.3   194  ARG194      0.1563
     92  C          6.4870   52.1880   11.2220 C.2   194  ARG194      0.2260
     93  O          5.3530   51.7170   11.3870 O.2   194  ARG194     -0.2867
     94  CB         6.3180   53.9930   12.9180 C.3   194  ARG194      0.0307
     95  CG         7.1310   53.2700   13.9660 C.3   194  ARG194      0.0489
     96  CD         6.2910   52.6440   15.0290 C.3   194  ARG194      0.2205
     97  NE         7.0910   52.0280   16.0820 N.pl3 194  ARG194     -0.0865
     98  CZ         6.8210   50.8460   16.6160 C.cat 194  ARG194      0.5346
     99  NH1        5.7820   50.1340   16.1830 N.pl3 194  ARG194      0.1354
    100  NH2        7.6060   50.3580   17.5750 N.pl3 194  ARG194      0.1354
    101  N          6.5320   48.7240   12.3500 N.3   196  ASP196     -0.1225
    102  CA         6.6030   47.9370   13.5670 C.3   196  ASP196      0.1805
    103  C          7.3500   46.6190   13.3530 C.2   196  ASP196      0.2597
    104  O          7.2110   45.9830   12.2970 O.2   196  ASP196     -0.2718
    105  CB         5.1780   47.6580   14.0500 C.3   196  ASP196      0.1424
    106  CG         5.1430   46.7720   15.2490 C.2   196  ASP196      0.3668
    107  OD1        5.5250   47.2350   16.3340 O.co2 196  ASP196     -0.2456
    108  OD2        4.7550   45.5890   15.1900 O.co2 196  ASP196     -0.2456
    109  N          8.1280   46.2200   14.3600 N.am  197  ALA197     -0.1979
    110  CA         8.7800   44.8990   14.4040 C.3   197  ALA197      0.1597
    111  C          9.6380   44.6360   13.1640 C.2   197  ALA197      0.2287
    112  O          9.6320   43.5290   12.6120 O.2   197  ALA197     -0.2864
    113  CB         7.7320   43.7800   14.6000 C.3   197  ALA197      0.0319
    114  N         12.8030   44.2320   12.7180 N.3   199  LYS199     -0.1231
    115  CA        13.8390   43.2100   12.9140 C.3   199  LYS199      0.1693
    116  C         13.3170   41.8200   12.5570 C.2   199  LYS199      0.2592
    117  O         14.0850   40.9420   12.1710 O.2   199  LYS199     -0.2718
    118  CB        14.3540   43.2340   14.3580 C.3   199  LYS199      0.0285
    119  CG        15.4500   42.2190   14.6630 C.3   199  LYS199      0.0035
    120  CD        15.7280   42.1330   16.1470 C.3   199  LYS199      0.0206
    121  CE        16.8860   43.0360   16.5060 C.3   199  LYS199      0.1093
    122  NZ        17.2050   42.9750   17.9590 N.3   199  LYS199     -0.1314
    123  N         12.0040   41.6450   12.6670 N.am  200  HIS200     -0.1976
    124  CA        11.3640   40.3410   12.4900 C.3   200  HIS200      0.1656
    125  C         10.9300   40.0940   11.0500 C.2   200  HIS200      0.2291
    126  O         10.2460   39.1100   10.7510 O.2   200  HIS200     -0.2864
    127  CB        10.2290   40.2160   13.5040 C.3   200  HIS200      0.0771
    128  CG        10.7230   40.3360   14.9050 C.ar  200  HIS200      0.0820
    129  ND1       11.4500   39.3360   15.5100 N.ar  200  HIS200     -0.2267
    130  CD2       10.7080   41.3730   15.7770 C.ar  200  HIS200      0.1154
    131  CE1       11.8160   39.7290   16.7170 C.ar  200  HIS200      0.1986
    132  NE2       11.3790   40.9610   16.9040 N.ar  200  HIS200     -0.2212
    133  N         11.2750   50.2560   13.0490 N.3   232  GLU232     -0.1245
    134  CA        11.6070   49.8580   14.4210 C.3   232  GLU232      0.1567
    135  C         12.5390   48.6420   14.4320 C.2   232  GLU232      0.2260
    136  O         12.1060   47.4980   14.2270 O.2   232  GLU232     -0.2867
    137  CB        10.3670   49.5830   15.2810 C.3   232  GLU232      0.0388
    138  CG        10.7410   49.3210   16.7440 C.3   232  GLU232      0.1160
    139  CD         9.9680   48.1930   17.4050 C.2   232  GLU232      0.3649
    140  OE1        9.3070   47.3850   16.7090 O.co2 232  GLU232     -0.2457
    141  OE2       10.0030   48.1240   18.6530 O.co2 232  GLU232     -0.2457
    142  N         15.4950   47.3160   17.1210 N.3   234  ILE234     -0.1245
    143  CA        16.2470   47.4870   18.3600 C.3   234  ILE234      0.1561
    144  C         17.5990   46.8150   18.1920 C.2   234  ILE234      0.2260
    145  O         17.7040   45.5890   18.2350 O.2   234  ILE234     -0.2867
    146  CB        15.5100   46.8900   19.5820 C.3   234  ILE234      0.0252
    147  CG1       14.1310   47.5280   19.7530 C.3   234  ILE234      0.0019
    148  CG2       16.3590   47.0520   20.8430 C.3   234  ILE234      0.0019
    149  CD1       13.2200   46.7490   20.6960 C.3   234  ILE234      0.0001
    150  N          7.0040   54.2400   23.3600 N.3   298  HIS298     -0.1226
    151  CA         5.8460   53.6950   24.0570 C.3   298  HIS298      0.1752
    152  C          6.1430   52.3600   24.7550 C.2   298  HIS298      0.2596
    153  O          5.5080   52.0340   25.7530 O.2   298  HIS298     -0.2718
    154  CB         4.6570   53.5780   23.0920 C.3   298  HIS298      0.0759
    155  CG         4.7960   52.4720   22.0960 C.ar  298  HIS298      0.0818
    156  ND1        5.4450   52.6300   20.8870 N.ar  298  HIS298     -0.2268
    157  CD2        4.3720   51.1860   22.1330 C.ar  298  HIS298      0.1154
    158  CE1        5.4150   51.4860   20.2260 C.ar  298  HIS298      0.1986
    159  NE2        4.7790   50.5910   20.9660 N.ar  298  HIS298     -0.2212
    160  N          7.1270   51.6140   24.2510 N.am  299  ASP299     -0.1974
    161  CA         7.5170   50.3390   24.8600 C.3   299  ASP299      0.1709
    162  C          8.3880   50.6000   26.0800 C.2   299  ASP299      0.2293
    163  O          8.0740   50.1590   27.1850 O.2   299  ASP299     -0.2864
    164  CB         8.3640   49.5030   23.8960 C.3   299  ASP299      0.1436
    165  CG         7.5500   48.6760   22.9240 C.2   299  ASP299      0.3671
    166  OD1        6.4090   48.2440   23.2080 O.co2 299  ASP299     -0.2456
    167  OD2        8.0290   48.3790   21.8150 O.co2 299  ASP299     -0.2456
    168  N          8.8790   47.7390   28.4650 N.3   304  HIS304     -0.1226
    169  CA         8.7340   46.8130   27.3470 C.3   304  HIS304      0.1752
    170  C          9.8330   47.0640   26.3110 C.2   304  HIS304      0.2596
    171  O         10.6710   47.9590   26.4890 O.2   304  HIS304     -0.2718
    172  CB         7.3360   46.9250   26.7270 C.3   304  HIS304      0.0759
    173  CG         6.2710   46.2170   27.5080 C.ar  304  HIS304      0.0818
    174  ND1        5.5770   45.1380   27.0050 N.ar  304  HIS304     -0.2268
    175  CD2        5.7800   46.4330   28.7510 C.ar  304  HIS304      0.1154
    176  CE1        4.7050   44.7180   27.9060 C.ar  304  HIS304      0.1986
    177  NE2        4.8060   45.4880   28.9740 N.ar  304  HIS304     -0.2212
    178  N          9.8270   46.2760   25.2380 N.am  305  GLY305     -0.1957
    179  CA        10.8790   46.3270   24.2410 C.3   305  GLY305      0.1869
    180  C         12.1660   45.8250   24.8520 C.2   305  GLY305      0.2309
    181  O         12.1800   44.7720   25.4960 O.2   305  GLY305     -0.2863
@<TRIPOS>BOND
     1    90    91    1
     2   126   125    2
     3   125   124    1
     4    92    93    2
     5    92    91    1
     6    50    51    1
     7    91    94    1
     8    53    52    2
     9    51    52    1
    10    51    54    1
    11   117   116    2
    12   104   103    2
    13   101   102    1
    14   124   123    1
    15   124   127    1
    16   116   123   am
    17   116   115    1
    18   112   111    2
    19   114   115    1
    20   115   118    1
    21    94    95    1
    22   133   134    1
    23   111   110    1
    24   103   102    1
    25   103   109   am
    26   127   128    1
    27    54    55    1
    28   102   105    1
    29    95    96    1
    30   105   106    1
    31   136   135    2
    32    55    56   ar
    33    55    57   ar
    34   118   119    1
    35   109   110    1
    36   110   113    1
    37   134   135    1
    38   134   137    1
    39    56    58   ar
    40   119   120    1
    41   128   129   ar
    42   128   130   ar
    43    96    97    1
    44    57    59   ar
    45   108   106   ar
    46    58    59   ar
    47   106   107   ar
    48   137   138    1
    49    85    84    2
    50   129   131   ar
    51   130   132   ar
    52    84    83    1
    53    97    98    2
    54   120   121    1
    55    99    98    1
    56    43    44    2
    57    43    42    1
    58   121   122    1
    59    98   100    1
    60   140   139   ar
    61   131   132   ar
    62   138   139    1
    63    68    69    1
    64    86    83    1
    65    86    87    1
    66   142   143    1
    67    83    82    1
    68    63    62    2
    69    32    31    2
    70    42    41    1
    71    42    45    1
    72   139   141   ar
    73    72    69    1
    74    72    73    1
    75    31    41   am
    76    31    30    1
    77    37    35   ar
    78    37    39   ar
    79    35    34   ar
    80    75    73    1
    81    69    70    1
    82    62    61    1
    83    30    29    1
    84    30    33    1
    85   144   145    2
    86   144   143    1
    87    88    87    1
    88    87    89    1
    89   143   146    1
    90    73    74    1
    91    45    46    1
    92    61    64    1
    93    61    60    1
    94    40    39    1
    95    39    38   ar
    96    66    67    1
    97    66    65    1
    98    33    34    1
    99    34    36   ar
   100    71    70    2
   101    70    76   am
   102    64    65    1
   103    46    47    1
   104   146   147    1
   105   146   148    1
   106   147   149    1
   107    38    36   ar
   108    76    77    1
   109    48    47    2
   110   158   156   ar
   111   158   159   ar
   112    47    49   am
   113   156   155   ar
   114   159   157   ar
   115    78    77    1
   116    78    79    2
   117    77    80    1
   118    18    17    2
   119   167   165   ar
   120   155   157   ar
   121   155   154    1
   122    80    81    1
   123    17    16    1
   124     4     3    2
   125   165   166   ar
   126   165   164    1
   127   154   151    1
   128   150   151    1
   129    16    19    1
   130    16    15    1
   131    13    11   ar
   132    13    14   ar
   133   164   161    1
   134     3    15   am
   135     3     2    1
   136    11     8   ar
   137   151   152    1
   138    19    20    1
   139   179   180    1
   140   179   178    1
   141   160   152   am
   142   160   161    1
   143    14    12   ar
   144    25    27   ar
   145    25    22   ar
   146   152   153    2
   147   180   181    2
   148   161   162    1
   149     2     5    1
   150     2     1    1
   151    27    28   ar
   152   178   170   am
   153     8     6   ar
   154     8    10   ar
   155    20    22   ar
   156    20    21   ar
   157     5     6    1
   158    22    24   ar
   159    12    10   ar
   160     6     7   ar
   161   162   163    2
   162    10     9   ar
   163   170   171    2
   164   170   169    1
   165    28    26   ar
   166    21    23   ar
   167   172   169    1
   168   172   173    1
   169    24    26   ar
   170    24    23   ar
   171   174   173   ar
   172   174   176   ar
   173   169   168    1
   174     7     9   ar
   175   173   175   ar
   176   176   177   ar
   177   175   177   ar
