@<TRIPOS>MOLECULE
tmp/1z35A00.pdb
 127 120 0 0 0
SMALL
GASTEIGER

@<TRIPOS>ATOM
      1  N        -11.6710  -42.6360   -0.8480 N.3    20  GLY20      -0.1225
      2  CA       -12.8700  -41.9810   -0.3580 C.3    20  GLY20       0.1811
      3  C        -13.5460  -42.6890    0.7970 C.2    20  GLY20       0.2280
      4  O        -13.9170  -42.0570    1.7890 O.2    20  GLY20      -0.2866
      5  N        -10.7290  -39.7990    2.6010 N.3    62  HIS62      -0.1226
      6  CA       -10.7430  -38.3920    2.2230 C.3    62  HIS62       0.1752
      7  C        -12.1180  -37.9060    1.7750 C.2    62  HIS62       0.2597
      8  O        -12.2510  -36.7870    1.2920 O.2    62  HIS62      -0.2718
      9  CB        -9.7040  -38.1030    1.1300 C.3    62  HIS62       0.0759
     10  CG        -9.9130  -38.8700   -0.1390 C.ar   62  HIS62       0.0818
     11  ND1      -11.1260  -38.9230   -0.7900 N.ar   62  HIS62      -0.2268
     12  CD2       -9.0480  -39.5860   -0.8980 C.ar   62  HIS62       0.1154
     13  CE1      -11.0010  -39.6380   -1.8940 C.ar   62  HIS62       0.1986
     14  NE2       -9.7500  -40.0520   -1.9820 N.ar   62  HIS62      -0.2212
     15  N        -13.1370  -38.7440    1.9510 N.am   63  GLY63      -0.1942
     16  CA       -14.4870  -38.3690    1.5550 C.3    63  GLY63       0.2014
     17  C        -14.6560  -38.2690    0.0490 C.2    63  GLY63       0.2638
     18  O        -13.7370  -38.5840   -0.7050 O.2    63  GLY63      -0.2714
     19  N        -15.8250  -37.8220   -0.3980 N.am   64  MET64      -0.1976
     20  CA       -16.0900  -37.6960   -1.8290 C.3    64  MET64       0.1605
     21  C        -16.1440  -36.2410   -2.2810 C.2    64  MET64       0.2287
     22  O        -16.7960  -35.4210   -1.6410 O.2    64  MET64      -0.2864
     23  CB       -17.4160  -38.3750   -2.1860 C.3    64  MET64       0.0413
     24  CG       -17.5210  -39.8250   -1.7440 C.3    64  MET64       0.0598
     25  SD       -19.0460  -40.6070   -2.3270 S.3    64  MET64      -0.1393
     26  CE       -20.2680  -39.8700   -1.2250 C.3    64  MET64       0.0692
     27  N         -3.5600  -41.2360   -4.1850 N.3    87  ARG87      -0.1245
     28  CA        -4.9800  -41.5280   -4.1280 C.3    87  ARG87       0.1563
     29  C         -5.2070  -42.8970   -4.7680 C.2    87  ARG87       0.2260
     30  O         -4.7660  -43.1590   -5.8890 O.2    87  ARG87      -0.2867
     31  CB        -5.7800  -40.4580   -4.8760 C.3    87  ARG87       0.0307
     32  CG        -7.2770  -40.5850   -4.6810 C.3    87  ARG87       0.0489
     33  CD        -8.0620  -39.6330   -5.5660 C.3    87  ARG87       0.2205
     34  NE        -9.0890  -40.3520   -6.3210 N.pl3  87  ARG87      -0.0865
     35  CZ       -10.0160  -41.1280   -5.7690 C.cat  87  ARG87       0.5346
     36  NH1      -10.0510  -41.2850   -4.4520 N.pl3  87  ARG87       0.1354
     37  NH2      -10.8990  -41.7610   -6.5310 N.pl3  87  ARG87       0.1354
     38  N        -11.6980  -46.3570   -6.7140 N.3    90  THR90      -0.1203
     39  CA       -12.4720  -46.8210   -7.8570 C.3    90  THR90       0.1994
     40  C        -12.8390  -45.6340   -8.7260 C.2    90  THR90       0.2618
     41  O        -12.7320  -44.4910   -8.2900 O.2    90  THR90      -0.2717
     42  CB       -13.7630  -47.5160   -7.4100 C.3    90  THR90       0.1784
     43  OG1      -14.5340  -46.6100   -6.6120 O.3    90  THR90      -0.2211
     44  CG2      -13.4410  -48.7670   -6.5990 C.3    90  THR90       0.0376
     45  N        -13.2800  -45.9110   -9.9490 N.am   91  CYS91      -0.1955
     46  CA       -13.6530  -44.8610  -10.8860 C.3    91  CYS91       0.1843
     47  C        -14.5690  -45.4080  -11.9700 C.2    91  CYS91       0.2626
     48  O        -14.7100  -46.6230  -12.1190 O.2    91  CYS91      -0.2714
     49  CB       -12.3990  -44.2770  -11.5380 C.3    91  CYS91       0.0997
     50  SG       -11.4470  -45.4930  -12.5090 S.3    91  CYS91      -0.0797
     51  N        -15.1880  -44.5030  -12.7230 N.am   92  GLY92      -0.1954
     52  CA       -16.0670  -44.9110  -13.8000 C.3    92  GLY92       0.1869
     53  C        -15.3700  -44.7280  -15.1360 C.2    92  GLY92       0.2309
     54  O        -14.7960  -43.6730  -15.4040 O.2    92  GLY92      -0.2863
     55  N        -15.3020  -34.9940  -11.4400 N.3   156  THR156     -0.1218
     56  CA       -16.5620  -34.2770  -11.5400 C.3   156  THR156      0.1862
     57  C        -17.0910  -33.8530  -10.1780 C.2   156  THR156      0.2287
     58  O        -16.8090  -34.4860   -9.1590 O.2   156  THR156     -0.2866
     59  CB       -17.6440  -35.1410  -12.2490 C.3   156  THR156      0.1770
     60  OG1      -18.8190  -34.3510  -12.4740 O.3   156  THR156     -0.2211
     61  CG2      -18.0190  -36.3560  -11.3920 C.3   156  THR156      0.0375
     62  N        -21.7370  -36.3560   -9.5510 N.3   159  PHE159     -0.1241
     63  CA       -21.7920  -37.7920   -9.8130 C.3   159  PHE159      0.1605
     64  C        -22.9860  -38.0180  -10.7540 C.2   159  PHE159      0.2264
     65  O        -22.9020  -38.7870  -11.7070 O.2   159  PHE159     -0.2867
     66  CB       -21.9970  -38.5630   -8.5060 C.3   159  PHE159      0.0534
     67  CG       -22.0270  -40.0590   -8.6790 C.ar  159  PHE159     -0.0203
     68  CD1      -20.8530  -40.8060   -8.6190 C.ar  159  PHE159     -0.0042
     69  CD2      -23.2330  -40.7210   -8.9180 C.ar  159  PHE159     -0.0042
     70  CE1      -20.8780  -42.1970   -8.7930 C.ar  159  PHE159     -0.0003
     71  CE2      -23.2710  -42.1030   -9.0930 C.ar  159  PHE159     -0.0003
     72  CZ       -22.0940  -42.8450   -9.0310 C.ar  159  PHE159     -0.0000
     73  N        -13.5960  -41.4560  -14.6600 N.3   178  VAL178     -0.1231
     74  CA       -14.1220  -40.3730  -13.8430 C.3   178  VAL178      0.1692
     75  C        -14.1110  -40.7090  -12.3610 C.2   178  VAL178      0.2592
     76  O        -14.4720  -41.8120  -11.9590 O.2   178  VAL178     -0.2718
     77  CB       -15.5930  -40.0490  -14.1970 C.3   178  VAL178      0.0266
     78  CG1      -16.0830  -38.8570  -13.3730 C.3   178  VAL178      0.0020
     79  CG2      -15.7250  -39.7580  -15.6650 C.3   178  VAL178      0.0020
     80  N        -13.6900  -39.7420  -11.5580 N.am  179  GLU179     -0.1966
     81  CA       -13.6990  -39.8790  -10.1120 C.3   179  GLU179      0.1733
     82  C        -14.0310  -38.4890   -9.5710 C.2   179  GLU179      0.2616
     83  O        -14.5740  -37.6600  -10.3150 O.2   179  GLU179     -0.2715
     84  CB       -12.3670  -40.4370   -9.5720 C.3   179  GLU179      0.0429
     85  CG       -11.0930  -39.9150  -10.2130 C.3   179  GLU179      0.1163
     86  CD       -10.7590  -38.5020   -9.7910 C.2   179  GLU179      0.3649
     87  OE1      -11.1660  -37.5600  -10.5020 O.co2 179  GLU179     -0.2457
     88  OE2      -10.0980  -38.3390   -8.7420 O.co2 179  GLU179     -0.2457
     89  N        -13.7120  -38.2070   -8.3110 N.am  180  MET180     -0.1963
     90  CA       -14.0900  -36.9090   -7.7610 C.3   180  MET180      0.1736
     91  C        -13.0840  -36.2080   -6.8530 C.2   180  MET180      0.2616
     92  O        -13.4840  -35.4250   -6.0020 O.2   180  MET180     -0.2715
     93  CB       -15.4210  -37.0640   -7.0050 C.3   180  MET180      0.0427
     94  CG       -16.5680  -37.6290   -7.8510 C.3   180  MET180      0.0599
     95  SD       -18.1330  -37.9260   -6.9500 S.3   180  MET180     -0.1393
     96  CE       -18.6850  -36.2660   -6.6100 C.3   180  MET180      0.0692
     97  N        -11.7900  -36.4540   -7.0250 N.am  181  GLU181     -0.1977
     98  CA       -10.8170  -35.8180   -6.1410 C.3   181  GLU181      0.1602
     99  C         -9.4830  -35.3920   -6.7550 C.2   181  GLU181      0.2287
    100  O         -8.9460  -34.3380   -6.4100 O.2   181  GLU181     -0.2864
    101  CB       -10.5390  -36.7330   -4.9430 C.3   181  GLU181      0.0415
    102  CG       -11.7610  -37.0140   -4.0630 C.3   181  GLU181      0.1163
    103  CD       -12.6880  -38.0720   -4.6440 C.2   181  GLU181      0.3649
    104  OE1      -13.8380  -38.1780   -4.1680 O.co2 181  GLU181     -0.2457
    105  OE2      -12.2640  -38.8010   -5.5650 O.co2 181  GLU181     -0.2457
    106  N        -14.6800  -49.6210  -11.7090 N.3   203  SER203     -0.1202
    107  CA       -15.7270  -50.4520  -11.1370 C.3   203  SER203      0.2020
    108  C        -17.0130  -50.4200  -11.9560 C.2   203  SER203      0.2618
    109  O        -17.9700  -51.1320  -11.6430 O.2   203  SER203     -0.2717
    110  CB       -16.0270  -50.0060   -9.7040 C.3   203  SER203      0.2103
    111  OG       -16.4780  -48.6650   -9.6780 O.3   203  SER203     -0.2182
    112  N        -17.0300  -49.6100  -13.0120 N.am  204  ASP204     -0.1973
    113  CA       -18.2210  -49.4950  -13.8470 C.3   204  ASP204      0.1709
    114  C        -17.9430  -48.6280  -15.0780 C.2   204  ASP204      0.2293
    115  O        -17.0240  -47.8100  -15.0670 O.2   204  ASP204     -0.2864
    116  CB       -19.3500  -48.8880  -13.0050 C.3   204  ASP204      0.1436
    117  CG       -20.6760  -48.8650  -13.7260 C.2   204  ASP204      0.3671
    118  OD1      -21.1260  -49.9300  -14.1950 O.co2 204  ASP204     -0.2456
    119  OD2      -21.2780  -47.7750  -13.8140 O.co2 204  ASP204     -0.2456
    120  N        -19.5670  -45.8600  -17.7750 N.3   206  ILE206     -0.1245
    121  CA       -20.6850  -44.9360  -17.9090 C.3   206  ILE206      0.1561
    122  C        -21.3090  -44.8610  -19.2970 C.2   206  ILE206      0.2260
    123  O        -22.3840  -44.2810  -19.4570 O.2   206  ILE206     -0.2867
    124  CB       -20.2930  -43.4950  -17.4690 C.3   206  ILE206      0.0252
    125  CG1      -19.4190  -42.8320  -18.5310 C.3   206  ILE206      0.0019
    126  CG2      -19.5520  -43.5360  -16.1390 C.3   206  ILE206      0.0019
    127  CD1      -19.0490  -41.4000  -18.1910 C.3   206  ILE206      0.0001
@<TRIPOS>BOND
     1   123   122    2
     2   122   121    1
     3   125   127    1
     4   125   124    1
     5   121   120    1
     6   121   124    1
     7   124   126    1
     8    79    77    1
     9    54    53    2
    10    53    52    1
    11   114   115    2
    12   114   113    1
    13    73    74    1
    14    77    74    1
    15    77    78    1
    16   118   117   ar
    17   113   112    1
    18   113   116    1
    19    74    75    1
    20   119   117   ar
    21    52    51    1
    22   117   116    1
    23   112   108   am
    24    51    47   am
    25    50    49    1
    26    60    59    1
    27    75    76    2
    28    75    80   am
    29    59    56    1
    30    59    61    1
    31    48    47    2
    32    47    46    1
    33   108   109    2
    34   108   107    1
    35   106   107    1
    36    65    64    2
    37    80    81    1
    38    56    55    1
    39    56    57    1
    40    49    46    1
    41   107   110    1
    42    46    45    1
    43    64    63    1
    44    87    86   ar
    45    83    82    2
    46    85    86    1
    47    85    84    1
    48    57    58    2
    49    81    84    1
    50    81    82    1
    51    45    40   am
    52    63    62    1
    53    63    66    1
    54    86    88   ar
    55   110   111    1
    56    82    89   am
    57    71    72   ar
    58    71    69   ar
    59    72    70   ar
    60    69    67   ar
    61    70    68   ar
    62    40    41    2
    63    40    39    1
    64    67    68   ar
    65    67    66    1
    66    89    90    1
    67    39    42    1
    68    39    38    1
    69    94    93    1
    70    94    95    1
    71    90    93    1
    72    90    91    1
    73    42    43    1
    74    42    44    1
    75    97    91   am
    76    97    98    1
    77    95    96    1
    78    91    92    2
    79    99   100    2
    80    99    98    1
    81    37    35    1
    82    34    35    2
    83    34    33    1
    84    98   101    1
    85    30    29    2
    86    35    36    1
    87    33    32    1
    88   105   103   ar
    89   101   102    1
    90    31    32    1
    91    31    28    1
    92    29    28    1
    93   103   104   ar
    94   103   102    1
    95    27    28    1
    96    25    24    1
    97    25    26    1
    98    21    20    1
    99    21    22    2
   100    23    20    1
   101    23    24    1
   102    14    13   ar
   103    14    12   ar
   104    13    11   ar
   105    20    19    1
   106    12    10   ar
   107     1     2    1
   108    11    10   ar
   109    18    17    2
   110    19    17   am
   111     2     3    1
   112    10     9    1
   113    17    16    1
   114     3     4    2
   115     9     6    1
   116     8     7    2
   117    16    15    1
   118     7    15   am
   119     7     6    1
   120     6     5    1
