@<TRIPOS>MOLECULE
tmp/1z36A00.pdb
 127 120 0 0 0
SMALL
GASTEIGER

@<TRIPOS>ATOM
      1  N        -11.6450  -42.6230   -0.8740 N.3    20  GLY20      -0.1225
      2  CA       -12.8650  -42.0020   -0.3920 C.3    20  GLY20       0.1811
      3  C        -13.5200  -42.7420    0.7520 C.2    20  GLY20       0.2280
      4  O        -13.8890  -42.1370    1.7590 O.2    20  GLY20      -0.2866
      5  N        -10.6980  -39.8130    2.5380 N.3    62  HIS62      -0.1226
      6  CA       -10.6930  -38.4060    2.1670 C.3    62  HIS62       0.1752
      7  C        -12.0740  -37.9110    1.7620 C.2    62  HIS62       0.2597
      8  O        -12.2180  -36.7760    1.3110 O.2    62  HIS62      -0.2718
      9  CB        -9.6830  -38.1310    1.0410 C.3    62  HIS62       0.0759
     10  CG        -9.9390  -38.8930   -0.2240 C.ar   62  HIS62       0.0818
     11  ND1      -11.1520  -38.8730   -0.8780 N.ar   62  HIS62      -0.2268
     12  CD2       -9.1270  -39.6860   -0.9640 C.ar   62  HIS62       0.1154
     13  CE1      -11.0780  -39.6240   -1.9630 C.ar   62  HIS62       0.1986
     14  NE2       -9.8600  -40.1290   -2.0380 N.ar   62  HIS62      -0.2212
     15  N        -13.0870  -38.7620    1.9400 N.am   63  GLY63      -0.1942
     16  CA       -14.4490  -38.3920    1.5870 C.3    63  GLY63       0.2014
     17  C        -14.6530  -38.3160    0.0840 C.2    63  GLY63       0.2638
     18  O        -13.7780  -38.6890   -0.6880 O.2    63  GLY63      -0.2714
     19  N        -15.8100  -37.8340   -0.3470 N.am   64  MET64      -0.1976
     20  CA       -16.0700  -37.7250   -1.7770 C.3    64  MET64       0.1605
     21  C        -16.1510  -36.2710   -2.2120 C.2    64  MET64       0.2287
     22  O        -16.7750  -35.4490   -1.5270 O.2    64  MET64      -0.2864
     23  CB       -17.3730  -38.4340   -2.1390 C.3    64  MET64       0.0413
     24  CG       -17.4140  -39.8880   -1.7370 C.3    64  MET64       0.0598
     25  SD       -18.9460  -40.6620   -2.2780 S.3    64  MET64      -0.1393
     26  CE       -20.1570  -39.7640   -1.2600 C.3    64  MET64       0.0692
     27  N         -3.5300  -41.1570   -4.1330 N.3    87  ARG87      -0.1245
     28  CA        -4.9500  -41.4480   -4.0540 C.3    87  ARG87       0.1563
     29  C         -5.1830  -42.8380   -4.6570 C.2    87  ARG87       0.2260
     30  O         -4.7120  -43.1590   -5.7490 O.2    87  ARG87      -0.2867
     31  CB        -5.7640  -40.3960   -4.8110 C.3    87  ARG87       0.0307
     32  CG        -7.2660  -40.5300   -4.6070 C.3    87  ARG87       0.0489
     33  CD        -8.0460  -39.6600   -5.5780 C.3    87  ARG87       0.2205
     34  NE        -9.0010  -40.4470   -6.3610 N.pl3  87  ARG87      -0.0865
     35  CZ        -9.9720  -41.1910   -5.8350 C.cat  87  ARG87       0.5346
     36  NH1      -10.1220  -41.2540   -4.5160 N.pl3  87  ARG87       0.1354
     37  NH2      -10.7960  -41.8720   -6.6260 N.pl3  87  ARG87       0.1354
     38  N        -11.6890  -46.1750   -6.6530 N.3    90  THR90      -0.1203
     39  CA       -12.4670  -46.6110   -7.8030 C.3    90  THR90       0.1994
     40  C        -12.7530  -45.4210   -8.7120 C.2    90  THR90       0.2618
     41  O        -12.4500  -44.2810   -8.3660 O.2    90  THR90      -0.2717
     42  CB       -13.8050  -47.2250   -7.3590 C.3    90  THR90       0.1784
     43  OG1      -14.5850  -46.2280   -6.6910 O.3    90  THR90      -0.2211
     44  CG2      -13.5710  -48.3810   -6.4030 C.3    90  THR90       0.0376
     45  N        -13.3380  -45.6910   -9.8730 N.am   91  CYS91      -0.1955
     46  CA       -13.6610  -44.6350  -10.8200 C.3    91  CYS91       0.1843
     47  C        -14.5600  -45.2250  -11.8960 C.2    91  CYS91       0.2626
     48  O        -14.7320  -46.4400  -11.9580 O.2    91  CYS91      -0.2714
     49  CB       -12.3820  -44.0920  -11.4590 C.3    91  CYS91       0.0997
     50  SG       -11.4510  -45.3600  -12.3770 S.3    91  CYS91      -0.0797
     51  N        -15.1330  -44.3650  -12.7340 N.am   92  GLY92      -0.1954
     52  CA       -16.0030  -44.8320  -13.7960 C.3    92  GLY92       0.1869
     53  C        -15.3460  -44.6690  -15.1560 C.2    92  GLY92       0.2309
     54  O        -14.9020  -43.5760  -15.5160 O.2    92  GLY92      -0.2863
     55  N        -15.2610  -35.0030  -11.3840 N.3   156  THR156     -0.1218
     56  CA       -16.5350  -34.2970  -11.4750 C.3   156  THR156      0.1862
     57  C        -17.0810  -33.8320  -10.1240 C.2   156  THR156      0.2287
     58  O        -16.7600  -34.3900   -9.0740 O.2   156  THR156     -0.2866
     59  CB       -17.6220  -35.1730  -12.1740 C.3   156  THR156      0.1770
     60  OG1      -18.8170  -34.4000  -12.3610 O.3   156  THR156     -0.2211
     61  CG2      -17.9650  -36.4060  -11.3270 C.3   156  THR156      0.0375
     62  N        -21.7460  -36.4050   -9.4880 N.3   159  PHE159     -0.1241
     63  CA       -21.7630  -37.8380   -9.7690 C.3   159  PHE159      0.1605
     64  C        -22.9270  -38.0490  -10.7530 C.2   159  PHE159      0.2264
     65  O        -22.7830  -38.7430  -11.7560 O.2   159  PHE159     -0.2867
     66  CB       -22.0000  -38.6190   -8.4850 C.3   159  PHE159      0.0534
     67  CG       -22.0800  -40.1090   -8.6820 C.ar  159  PHE159     -0.0203
     68  CD1      -20.9340  -40.9000   -8.5960 C.ar  159  PHE159     -0.0042
     69  CD2      -23.3100  -40.7250   -8.9260 C.ar  159  PHE159     -0.0042
     70  CE1      -21.0100  -42.2920   -8.7440 C.ar  159  PHE159     -0.0003
     71  CE2      -23.3990  -42.1050   -9.0740 C.ar  159  PHE159     -0.0003
     72  CZ       -22.2430  -42.8950   -8.9810 C.ar  159  PHE159     -0.0000
     73  N        -13.5860  -41.3310  -14.6800 N.3   178  VAL178     -0.1231
     74  CA       -14.0680  -40.2460  -13.8510 C.3   178  VAL178      0.1692
     75  C        -14.1120  -40.6290  -12.3840 C.2   178  VAL178      0.2592
     76  O        -14.5330  -41.7290  -12.0260 O.2   178  VAL178     -0.2718
     77  CB       -15.4840  -39.8050  -14.2810 C.3   178  VAL178      0.0266
     78  CG1      -16.1770  -39.0360  -13.1530 C.3   178  VAL178      0.0020
     79  CG2      -15.3790  -38.9130  -15.5010 C.3   178  VAL178      0.0020
     80  N        -13.6530  -39.7110  -11.5460 N.am  179  GLU179     -0.1966
     81  CA       -13.6770  -39.8800  -10.1040 C.3   179  GLU179      0.1733
     82  C        -14.0140  -38.4950   -9.5420 C.2   179  GLU179      0.2616
     83  O        -14.5570  -37.6640  -10.2720 O.2   179  GLU179     -0.2715
     84  CB       -12.3400  -40.4420   -9.5740 C.3   179  GLU179      0.0429
     85  CG       -11.0550  -39.8700  -10.1660 C.3   179  GLU179      0.1163
     86  CD       -10.7990  -38.4420   -9.7350 C.2   179  GLU179      0.3649
     87  OE1      -11.2760  -37.5200  -10.4310 O.co2 179  GLU179     -0.2457
     88  OE2      -10.1320  -38.2440   -8.6900 O.co2 179  GLU179     -0.2457
     89  N        -13.6930  -38.2100   -8.2850 N.am  180  MET180     -0.1963
     90  CA       -14.0910  -36.9100   -7.7410 C.3   180  MET180      0.1736
     91  C        -13.0910  -36.1940   -6.8350 C.2   180  MET180      0.2616
     92  O        -13.4890  -35.3970   -5.9920 O.2   180  MET180     -0.2715
     93  CB       -15.4160  -37.0810   -6.9790 C.3   180  MET180      0.0427
     94  CG       -16.5540  -37.6480   -7.8330 C.3   180  MET180      0.0599
     95  SD       -18.1500  -37.9050   -6.9840 S.3   180  MET180     -0.1393
     96  CE       -18.6440  -36.2180   -6.5770 C.3   180  MET180      0.0692
     97  N        -11.7990  -36.4440   -7.0010 N.am  181  GLU181     -0.1977
     98  CA       -10.8460  -35.8070   -6.1060 C.3   181  GLU181      0.1602
     99  C         -9.5290  -35.3410   -6.7180 C.2   181  GLU181      0.2287
    100  O         -9.0400  -34.2650   -6.3900 O.2   181  GLU181     -0.2864
    101  CB       -10.5470  -36.7580   -4.9390 C.3   181  GLU181      0.0415
    102  CG       -11.7600  -37.1280   -4.0920 C.3   181  GLU181      0.1163
    103  CD       -12.6920  -38.1310   -4.7600 C.2   181  GLU181      0.3649
    104  OE1      -13.8630  -38.2400   -4.3180 O.co2 181  GLU181     -0.2457
    105  OE2      -12.2570  -38.8150   -5.7130 O.co2 181  GLU181     -0.2457
    106  N        -14.7860  -49.3790  -11.5170 N.3   203  SER203     -0.1202
    107  CA       -15.8670  -50.1170  -10.8860 C.3   203  SER203      0.2020
    108  C        -17.1070  -50.1490  -11.7700 C.2   203  SER203      0.2618
    109  O        -17.9660  -51.0220  -11.6160 O.2   203  SER203     -0.2717
    110  CB       -16.2160  -49.4880   -9.5390 C.3   203  SER203      0.2103
    111  OG       -16.6250  -48.1450   -9.7070 O.3   203  SER203     -0.2182
    112  N        -17.1970  -49.1980  -12.6960 N.am  204  ASP204     -0.1973
    113  CA       -18.3400  -49.1230  -13.6020 C.3   204  ASP204      0.1709
    114  C        -17.9860  -48.3630  -14.8750 C.2   204  ASP204      0.2293
    115  O        -16.9770  -47.6570  -14.9290 O.2   204  ASP204     -0.2864
    116  CB       -19.5230  -48.4220  -12.9140 C.3   204  ASP204      0.1436
    117  CG       -19.2260  -46.9590  -12.5620 C.2   204  ASP204      0.3671
    118  OD1      -18.4560  -46.6990  -11.6000 O.co2 204  ASP204     -0.2456
    119  OD2      -19.7660  -46.0660  -13.2620 O.co2 204  ASP204     -0.2456
    120  N        -19.5330  -45.6070  -17.5790 N.3   206  ILE206     -0.1245
    121  CA       -20.6250  -44.6570  -17.7380 C.3   206  ILE206      0.1561
    122  C        -21.2500  -44.6310  -19.1300 C.2   206  ILE206      0.2260
    123  O        -22.3560  -44.1140  -19.2990 O.2   206  ILE206     -0.2867
    124  CB       -20.1930  -43.2110  -17.3520 C.3   206  ILE206      0.0252
    125  CG1      -19.3550  -42.5920  -18.4640 C.3   206  ILE206      0.0019
    126  CG2      -19.4060  -43.2310  -16.0520 C.3   206  ILE206      0.0019
    127  CD1      -18.9380  -41.1560  -18.1840 C.3   206  ILE206      0.0001
@<TRIPOS>BOND
     1   123   122    2
     2   122   121    1
     3   125   127    1
     4   125   124    1
     5   121   120    1
     6   121   124    1
     7   124   126    1
     8    54    53    2
     9    79    77    1
    10    53    52    1
    11   115   114    2
    12   114   113    1
    13    73    74    1
    14    77    74    1
    15    77    78    1
    16    74    75    1
    17    52    51    1
    18   113   116    1
    19   113   112    1
    20   119   117   ar
    21   116   117    1
    22    51    47   am
    23   112   108   am
    24   117   118   ar
    25    75    76    2
    26    75    80   am
    27    50    49    1
    28    60    59    1
    29    59    56    1
    30    59    61    1
    31    48    47    2
    32    47    46    1
    33   108   109    2
    34   108   107    1
    35    65    64    2
    36    80    81    1
    37   106   107    1
    38    56    55    1
    39    56    57    1
    40    49    46    1
    41   107   110    1
    42    46    45    1
    43    64    63    1
    44    87    86   ar
    45    83    82    2
    46    85    86    1
    47    85    84    1
    48    57    58    2
    49    81    84    1
    50    81    82    1
    51    45    40   am
    52    63    62    1
    53    63    66    1
    54    86    88   ar
    55   111   110    1
    56    82    89   am
    57    71    72   ar
    58    71    69   ar
    59    72    70   ar
    60    69    67   ar
    61    70    68   ar
    62    40    41    2
    63    40    39    1
    64    67    68   ar
    65    67    66    1
    66    89    90    1
    67    94    95    1
    68    94    93    1
    69    39    42    1
    70    39    38    1
    71    90    93    1
    72    90    91    1
    73    42    43    1
    74    42    44    1
    75    97    91   am
    76    97    98    1
    77    95    96    1
    78    91    92    2
    79    99   100    2
    80    99    98    1
    81    37    35    1
    82    34    35    2
    83    34    33    1
    84    98   101    1
    85    35    36    1
    86    30    29    2
    87   105   103   ar
    88    33    32    1
    89   101   102    1
    90    31    32    1
    91    31    28    1
    92   103   104   ar
    93   103   102    1
    94    29    28    1
    95    27    28    1
    96    25    24    1
    97    25    26    1
    98    21    20    1
    99    21    22    2
   100    23    20    1
   101    23    24    1
   102    14    13   ar
   103    14    12   ar
   104    13    11   ar
   105    20    19    1
   106    12    10   ar
   107    11    10   ar
   108     1     2    1
   109    18    17    2
   110     2     3    1
   111    19    17   am
   112    10     9    1
   113    17    16    1
   114     3     4    2
   115     9     6    1
   116     8     7    2
   117    16    15    1
   118     7    15   am
   119     7     6    1
   120     6     5    1
