@<TRIPOS>MOLECULE
tmp/1z38A00.pdb
 109 101 0 0 0
SMALL
GASTEIGER

@<TRIPOS>ATOM
      1  N        -11.6540  -42.6120   -0.7620 N.3    20  GLY20      -0.1225
      2  CA       -12.8620  -41.9650   -0.2840 C.3    20  GLY20       0.1811
      3  C        -13.5280  -42.6940    0.8650 C.2    20  GLY20       0.2280
      4  O        -13.8930  -42.0780    1.8670 O.2    20  GLY20      -0.2866
      5  N        -13.1250  -38.6810    2.0120 N.3    63  GLY63      -0.1210
      6  CA       -14.4790  -38.3300    1.6110 C.3    63  GLY63       0.1956
      7  C        -14.6430  -38.2570    0.1050 C.2    63  GLY63       0.2611
      8  O        -13.7130  -38.5520   -0.6350 O.2    63  GLY63      -0.2717
      9  N        -15.8240  -37.8640   -0.3600 N.am   64  MET64      -0.1979
     10  CA       -16.0660  -37.7560   -1.7980 C.3    64  MET64       0.1605
     11  C        -16.1290  -36.2960   -2.2350 C.2    64  MET64       0.2287
     12  O        -16.7430  -35.4740   -1.5580 O.2    64  MET64      -0.2864
     13  CB       -17.3820  -38.4470   -2.1750 C.3    64  MET64       0.0413
     14  CG       -17.4580  -39.9200   -1.7980 C.3    64  MET64       0.0598
     15  SD       -19.0190  -40.6730   -2.3230 S.3    64  MET64      -0.1393
     16  CE       -20.1820  -39.9220   -1.1450 C.3    64  MET64       0.0692
     17  N         -3.4940  -41.2850   -4.1690 N.3    87  ARG87      -0.1245
     18  CA        -4.9200  -41.5580   -4.1000 C.3    87  ARG87       0.1563
     19  C         -5.1830  -42.9410   -4.6950 C.2    87  ARG87       0.2260
     20  O         -4.7650  -43.2560   -5.8090 O.2    87  ARG87      -0.2867
     21  CB        -5.7190  -40.5020   -4.8660 C.3    87  ARG87       0.0307
     22  CG        -7.1300  -40.3050   -4.3240 C.3    87  ARG87       0.0489
     23  CD        -7.9410  -39.3590   -5.1920 C.3    87  ARG87       0.2205
     24  NE        -8.6970  -40.0880   -6.2060 N.pl3  87  ARG87      -0.0865
     25  CZ        -9.6700  -40.9500   -5.9280 C.cat  87  ARG87       0.5346
     26  NH1      -10.0080  -41.1880   -4.6670 N.pl3  87  ARG87       0.1354
     27  NH2      -10.3080  -41.5770   -6.9080 N.pl3  87  ARG87       0.1354
     28  N        -11.7340  -46.0780   -6.7160 N.3    90  THR90      -0.1203
     29  CA       -12.5170  -46.6150   -7.8180 C.3    90  THR90       0.1994
     30  C        -12.8690  -45.4640   -8.7460 C.2    90  THR90       0.2618
     31  O        -12.7370  -44.3030   -8.3670 O.2    90  THR90      -0.2717
     32  CB       -13.8100  -47.2640   -7.3030 C.3    90  THR90       0.1784
     33  OG1      -14.6270  -46.2650   -6.6770 O.3    90  THR90      -0.2211
     34  CG2      -13.4830  -48.3540   -6.2790 C.3    90  THR90       0.0376
     35  N        -13.3080  -45.7820   -9.9590 N.am   91  CYS91      -0.1955
     36  CA       -13.6750  -44.7520  -10.9220 C.3    91  CYS91       0.1843
     37  C        -14.6210  -45.3140  -11.9820 C.2    91  CYS91       0.2626
     38  O        -14.7890  -46.5290  -12.0890 O.2    91  CYS91      -0.2714
     39  CB       -12.4140  -44.1800  -11.5870 C.3    91  CYS91       0.0997
     40  SG       -11.3900  -45.4040  -12.4870 S.3    91  CYS91      -0.0797
     41  N        -15.2420  -44.4230  -12.7510 N.am   92  GLY92      -0.1954
     42  CA       -16.1580  -44.8400  -13.7970 C.3    92  GLY92       0.1869
     43  C        -15.5250  -44.6650  -15.1660 C.2    92  GLY92       0.2309
     44  O        -15.1320  -43.5550  -15.5450 O.2    92  GLY92      -0.2863
     45  N        -15.2800  -35.0260  -11.3960 N.3   156  THR156     -0.1218
     46  CA       -16.5530  -34.3390  -11.4900 C.3   156  THR156      0.1862
     47  C        -17.0690  -33.8800  -10.1300 C.2   156  THR156      0.2287
     48  O        -16.7540  -34.4670   -9.0880 O.2   156  THR156     -0.2866
     49  CB       -17.6300  -35.2430  -12.1440 C.3   156  THR156      0.1770
     50  OG1      -18.8240  -34.4810  -12.3640 O.3   156  THR156     -0.2211
     51  CG2      -17.9650  -36.4340  -11.2330 C.3   156  THR156      0.0375
     52  N        -21.6920  -36.4490   -9.4740 N.3   159  PHE159     -0.1241
     53  CA       -21.7370  -37.8850   -9.7250 C.3   159  PHE159      0.1605
     54  C        -22.8940  -38.0890  -10.7110 C.2   159  PHE159      0.2264
     55  O        -22.7530  -38.7880  -11.7150 O.2   159  PHE159     -0.2867
     56  CB       -22.0160  -38.6440   -8.4310 C.3   159  PHE159      0.0534
     57  CG       -22.0480  -40.1400   -8.6000 C.ar  159  PHE159     -0.0203
     58  CD1      -20.8780  -40.8910   -8.5020 C.ar  159  PHE159     -0.0042
     59  CD2      -23.2480  -40.7950   -8.8770 C.ar  159  PHE159     -0.0042
     60  CE1      -20.9010  -42.2730   -8.6770 C.ar  159  PHE159     -0.0003
     61  CE2      -23.2840  -42.1710   -9.0540 C.ar  159  PHE159     -0.0003
     62  CZ       -22.1070  -42.9160   -8.9540 C.ar  159  PHE159     -0.0000
     63  N        -13.6940  -41.4270  -14.6940 N.3   178  VAL178     -0.1231
     64  CA       -14.1700  -40.3350  -13.8590 C.3   178  VAL178      0.1692
     65  C        -14.1430  -40.6870  -12.3830 C.2   178  VAL178      0.2592
     66  O        -14.5270  -41.7890  -11.9870 O.2   178  VAL178     -0.2718
     67  CB       -15.6400  -39.9570  -14.1860 C.3   178  VAL178      0.0266
     68  CG1      -16.1040  -38.8070  -13.2830 C.3   178  VAL178      0.0020
     69  CG2      -15.7700  -39.5660  -15.6370 C.3   178  VAL178      0.0020
     70  N        -13.6780  -39.7430  -11.5770 N.am  179  GLU179     -0.1966
     71  CA       -13.6740  -39.8970  -10.1330 C.3   179  GLU179      0.1733
     72  C        -14.0330  -38.5130   -9.5810 C.2   179  GLU179      0.2616
     73  O        -14.6310  -37.7090  -10.3060 O.2   179  GLU179     -0.2715
     74  CB       -12.3250  -40.4390   -9.6110 C.3   179  GLU179      0.0429
     75  CG       -11.0680  -39.8630  -10.2300 C.3   179  GLU179      0.1163
     76  CD       -10.7480  -38.4770   -9.7130 C.2   179  GLU179      0.3649
     77  OE1      -11.1490  -37.4950  -10.3720 O.co2 179  GLU179     -0.2457
     78  OE2      -10.1040  -38.3730   -8.6430 O.co2 179  GLU179     -0.2457
     79  N        -13.6830  -38.2070   -8.3370 N.am  180  MET180     -0.1963
     80  CA       -14.0860  -36.9100   -7.7870 C.3   180  MET180      0.1736
     81  C        -13.0850  -36.2320   -6.8620 C.2   180  MET180      0.2616
     82  O        -13.4820  -35.4900   -5.9740 O.2   180  MET180     -0.2715
     83  CB       -15.4190  -37.0800   -7.0400 C.3   180  MET180      0.0427
     84  CG       -16.5550  -37.6450   -7.9040 C.3   180  MET180      0.0599
     85  SD       -18.1220  -38.0000   -7.0310 S.3   180  MET180     -0.1393
     86  CE       -18.6850  -36.3630   -6.5950 C.3   180  MET180      0.0692
     87  N        -11.7920  -36.4510   -7.0700 N.am  181  GLU181     -0.1977
     88  CA       -10.8170  -35.8580   -6.1660 C.3   181  GLU181      0.1602
     89  C         -9.5010  -35.3800   -6.7670 C.2   181  GLU181      0.2287
     90  O         -8.9900  -34.3290   -6.3900 O.2   181  GLU181     -0.2864
     91  CB       -10.5220  -36.8480   -5.0340 C.3   181  GLU181      0.0415
     92  CG       -11.7260  -37.1620   -4.1370 C.3   181  GLU181      0.1163
     93  CD       -12.6910  -38.1690   -4.7420 C.2   181  GLU181      0.3649
     94  OE1      -13.8170  -38.3000   -4.2150 O.co2 181  GLU181     -0.2457
     95  OE2      -12.3280  -38.8370   -5.7330 O.co2 181  GLU181     -0.2457
     96  N        -14.8270  -49.5200  -11.6070 N.3   203  SER203     -0.1217
     97  CA       -15.9040  -50.2970  -11.0090 C.3   203  SER203      0.1889
     98  C        -17.1100  -50.4570  -11.9370 C.2   203  SER203      0.2288
     99  O        -17.9890  -51.2860  -11.6830 O.2   203  SER203     -0.2866
    100  CB       -16.3310  -49.6630   -9.6840 C.3   203  SER203      0.2089
    101  OG       -16.6230  -48.2940   -9.8550 O.3   203  SER203     -0.2183
    102  N        -19.6080  -45.8470  -17.6510 N.3   206  ILE206     -0.1245
    103  CA       -20.7210  -44.9090  -17.7090 C.3   206  ILE206      0.1561
    104  C        -21.4600  -44.8690  -19.0410 C.2   206  ILE206      0.2260
    105  O        -22.6060  -44.4250  -19.1020 O.2   206  ILE206     -0.2867
    106  CB       -20.2690  -43.4650  -17.3470 C.3   206  ILE206      0.0252
    107  CG1      -19.3780  -42.8970  -18.4500 C.3   206  ILE206      0.0019
    108  CG2      -19.5260  -43.4680  -16.0150 C.3   206  ILE206      0.0019
    109  CD1      -18.9210  -41.4710  -18.1900 C.3   206  ILE206      0.0001
@<TRIPOS>BOND
     1   105   104    2
     2   104   103    1
     3   107   109    1
     4   107   106    1
     5   103   102    1
     6   103   106    1
     7   106   108    1
     8    69    67    1
     9    44    43    2
    10    43    42    1
    11    63    64    1
    12    67    64    1
    13    67    68    1
    14    64    65    1
    15    42    41    1
    16    41    37   am
    17    40    39    1
    18    65    66    2
    19    65    70   am
    20    50    49    1
    21    49    46    1
    22    49    51    1
    23    38    37    2
    24    37    36    1
    25    98    99    2
    26    98    97    1
    27    55    54    2
    28    96    97    1
    29    39    36    1
    30    70    71    1
    31    46    45    1
    32    46    47    1
    33    97   100    1
    34    36    35    1
    35    54    53    1
    36    77    76   ar
    37    73    72    2
    38    75    76    1
    39    75    74    1
    40    71    74    1
    41    71    72    1
    42    47    48    2
    43    35    30   am
    44   101   100    1
    45    53    52    1
    46    53    56    1
    47    76    78   ar
    48    72    79   am
    49    61    62   ar
    50    61    59   ar
    51    62    60   ar
    52    59    57   ar
    53    30    31    2
    54    30    29    1
    55    60    58   ar
    56    57    58   ar
    57    57    56    1
    58    79    80    1
    59    84    83    1
    60    84    85    1
    61    29    32    1
    62    29    28    1
    63    80    83    1
    64    80    81    1
    65    32    33    1
    66    32    34    1
    67    87    81   am
    68    87    88    1
    69    85    86    1
    70    27    25    1
    71    81    82    2
    72    89    90    2
    73    89    88    1
    74    24    25    2
    75    24    23    1
    76    88    91    1
    77    25    26    1
    78    20    19    2
    79    95    93   ar
    80    23    22    1
    81    91    92    1
    82    21    22    1
    83    21    18    1
    84    93    94   ar
    85    93    92    1
    86    19    18    1
    87    17    18    1
    88    15    14    1
    89    15    16    1
    90    11    10    1
    91    11    12    2
    92    13    10    1
    93    13    14    1
    94    10     9    1
    95     1     2    1
    96     8     7    2
    97     9     7   am
    98     2     3    1
    99     7     6    1
   100     3     4    2
   101     6     5    1
