@<TRIPOS>MOLECULE
tmp/1z3cA00.pdb
 171 165 0 0 0
SMALL
GASTEIGER

@<TRIPOS>ATOM
      1  N          5.8520   37.6680   90.5630 N.3    14  LYS14      -0.1245
      2  CA         5.8200   36.2620   90.9180 C.3    14  LYS14       0.1561
      3  C          4.6320   36.0050   91.8600 C.2    14  LYS14       0.2260
      4  O          3.9020   35.0200   91.7180 O.2    14  LYS14      -0.2867
      5  CB         7.1450   35.8910   91.5780 C.3    14  LYS14       0.0271
      6  CG         7.8790   34.7660   90.8820 C.3    14  LYS14       0.0035
      7  CD         9.3840   34.8180   91.1120 C.3    14  LYS14       0.0206
      8  CE         9.7370   35.0160   92.5630 C.3    14  LYS14       0.1093
      9  NZ        11.2040   34.9250   92.7870 N.3    14  LYS14      -0.1314
     10  N          7.9380   23.2370   92.5060 N.3    30  ASP30      -0.1225
     11  CA         8.7760   24.3780   92.1840 C.3    30  ASP30       0.1805
     12  C         10.1160   23.9350   91.5990 C.2    30  ASP30       0.2598
     13  O         10.9860   23.4430   92.3240 O.2    30  ASP30      -0.2718
     14  CB         8.9930   25.1880   93.4470 C.3    30  ASP30       0.1424
     15  CG         9.3880   26.5960   93.1620 C.2    30  ASP30       0.3668
     16  OD1        9.7410   27.3000   94.1200 O.co2  30  ASP30      -0.2456
     17  OD2        9.3400   26.9960   91.9860 O.co2  30  ASP30      -0.2456
     18  N         10.2820   24.1180   90.2900 N.am   31  LEU31      -0.1966
     19  CA        11.5030   23.7040   89.6120 C.3    31  LEU31       0.1728
     20  C         12.5030   24.8410   89.5040 C.2    31  LEU31       0.2617
     21  O         12.1550   25.9560   89.1190 O.2    31  LEU31      -0.2715
     22  CB        11.1590   23.1330   88.2320 C.3    31  LEU31       0.0311
     23  CG        10.1420   21.9730   88.2680 C.3    31  LEU31       0.0022
     24  CD1        9.9790   21.3930   86.8840 C.3    31  LEU31       0.0001
     25  CD2       10.6000   20.8960   89.2450 C.3    31  LEU31       0.0001
     26  N         13.7550   24.5420   89.8510 N.am   32  GLY32      -0.1940
     27  CA        14.7970   25.5520   89.8420 C.3    32  GLY32       0.2014
     28  C         14.4560   26.4490   91.0090 C.2    32  GLY32       0.2639
     29  O         14.7490   27.6380   91.0060 O.2    32  GLY32      -0.2714
     30  N         13.8460   25.8430   92.0230 N.am   33  CYS33      -0.1953
     31  CA        13.3750   26.5460   93.2150 C.3    33  CYS33       0.1843
     32  C         14.3410   27.4730   93.9230 C.2    33  CYS33       0.2626
     33  O         13.9040   28.3680   94.6440 O.2    33  CYS33      -0.2714
     34  CB        12.8180   25.5480   94.2360 C.3    33  CYS33       0.0997
     35  SG        14.0450   24.6370   95.1990 S.3    33  CYS33      -0.0797
     36  N         15.6420   27.2670   93.7320 N.am   34  GLY34      -0.1940
     37  CA        16.6270   28.1140   94.3900 C.3    34  GLY34       0.2014
     38  C         16.5210   28.0990   95.9080 C.2    34  GLY34       0.2638
     39  O         16.1870   27.0720   96.5000 O.2    34  GLY34      -0.2714
     40  N         16.7910   29.2440   96.5370 N.am   35  LYS35      -0.1977
     41  CA        16.7370   29.3680   97.9950 C.3    35  LYS35       0.1596
     42  C         15.3150   29.2840   98.5640 C.2    35  LYS35       0.2287
     43  O         15.1030   29.4590   99.7590 O.2    35  LYS35      -0.2864
     44  CB        17.3880   30.6800   98.4300 C.3    35  LYS35       0.0298
     45  CG        18.8090   30.8810   97.9190 C.3    35  LYS35       0.0038
     46  CD        19.3430   32.2700   98.3080 C.3    35  LYS35       0.0206
     47  CE        20.7480   32.5520   97.7460 C.3    35  LYS35       0.1093
     48  NZ        20.7970   32.8190   96.2680 N.3    35  LYS35      -0.1314
     49  N         12.5010   31.2400   97.8750 N.3    37  GLY37      -0.1210
     50  CA        11.8870   32.4980   98.2520 C.3    37  GLY37       0.1956
     51  C         10.3720   32.4560   98.1480 C.2    37  GLY37       0.2611
     52  O          9.6680   33.0270   98.9850 O.2    37  GLY37      -0.2717
     53  N          9.8600   31.7640   97.1350 N.am   38  ASP38      -0.1973
     54  CA         8.4150   31.6860   96.9390 C.3    38  ASP38       0.1709
     55  C          7.6250   30.9200   97.9980 C.2    38  ASP38       0.2293
     56  O          6.4040   30.8450   97.9210 O.2    38  ASP38      -0.2864
     57  CB         8.1020   31.1050   95.5600 C.3    38  ASP38       0.1436
     58  CG         8.5890   31.9930   94.4310 C.2    38  ASP38       0.3671
     59  OD1        8.7320   33.2140   94.6570 O.co2  38  ASP38      -0.2456
     60  OD2        8.8150   31.4760   93.3170 O.co2  38  ASP38      -0.2456
     61  N         15.9040   21.5020   92.8180 N.3    54  ASP54      -0.1225
     62  CA        16.9550   22.3400   92.2660 C.3    54  ASP54       0.1805
     63  C         18.2070   21.5010   92.0770 C.2    54  ASP54       0.2598
     64  O         18.5240   20.6430   92.9010 O.2    54  ASP54      -0.2718
     65  CB        17.2380   23.5170   93.1960 C.3    54  ASP54       0.1424
     66  CG        18.0440   24.6080   92.5220 C.2    54  ASP54       0.3668
     67  OD1       19.2130   24.3430   92.1740 O.co2  54  ASP54      -0.2456
     68  OD2       17.5030   25.7260   92.3420 O.co2  54  ASP54      -0.2456
     69  N         18.9080   21.7410   90.9760 N.am   55  ILE55      -0.1966
     70  CA        20.1160   20.9960   90.6720 C.3    55  ILE55       0.1727
     71  C         21.2180   21.3350   91.6620 C.2    55  ILE55       0.2616
     72  O         22.0620   20.4950   91.9680 O.2    55  ILE55      -0.2715
     73  CB        20.6120   21.3000   89.2480 C.3    55  ILE55       0.0290
     74  CG1       21.6040   20.2280   88.8070 C.3    55  ILE55       0.0022
     75  CG2       21.2770   22.6790   89.2050 C.3    55  ILE55       0.0023
     76  CD1       21.8380   20.2150   87.3270 C.3    55  ILE55       0.0001
     77  N         21.1950   22.5640   92.1670 N.am   56  ALA56      -0.1977
     78  CA        22.1960   23.0220   93.1200 C.3    56  ALA56       0.1597
     79  C         21.8670   22.6500   94.5650 C.2    56  ALA56       0.2287
     80  O         20.9400   23.1920   95.1680 O.2    56  ALA56      -0.2864
     81  CB        22.3670   24.5270   93.0020 C.3    56  ALA56       0.0319
     82  N         21.5470   25.4230   96.9990 N.3    59  SER59      -0.1217
     83  CA        20.2800   26.1460   96.9860 C.3    59  SER59       0.1889
     84  C         19.2310   25.4370   97.8270 C.2    59  SER59       0.2288
     85  O         18.5960   26.0550   98.6800 O.2    59  SER59      -0.2866
     86  CB        19.7710   26.3130   95.5570 C.3    59  SER59       0.2089
     87  OG        20.5640   27.2470   94.8460 O.3    59  SER59      -0.2183
     88  N         18.4730   17.5960   92.2560 N.3    81  GLN81      -0.1231
     89  CA        18.7410   16.8530   91.0320 C.3    81  GLN81       0.1698
     90  C         18.4260   17.7480   89.8380 C.2    81  GLN81       0.2592
     91  O         17.8170   18.8050   89.9900 O.2    81  GLN81      -0.2718
     92  CB        17.8820   15.5800   90.9620 C.3    81  GLN81       0.0381
     93  CG        16.4220   15.8200   90.5790 C.3    81  GLN81       0.0905
     94  CD        15.6260   14.5280   90.3860 C.2    81  GLN81       0.2608
     95  OE1       15.4180   13.7620   91.3280 O.2    81  GLN81      -0.2717
     96  NE2       15.1760   14.2890   89.1600 N.am   81  GLN81      -0.0878
     97  N         18.8440   17.3140   88.6560 N.am   82  ASP82      -0.1960
     98  CA        18.6080   18.0480   87.4240 C.3    82  ASP82       0.1840
     99  C         17.2140   17.6980   86.9060 C.2    82  ASP82       0.2623
    100  O         16.9720   16.5790   86.4550 O.2    82  ASP82      -0.2715
    101  CB        19.6920   17.6680   86.4060 C.3    82  ASP82       0.1450
    102  CG        19.3910   18.1480   85.0020 C.2    82  ASP82       0.3671
    103  OD1       18.4090   18.8910   84.7890 O.co2  82  ASP82      -0.2456
    104  OD2       20.1600   17.7700   84.0950 O.co2  82  ASP82      -0.2456
    105  N         16.3030   18.6650   86.9790 N.am   83  SER83      -0.1936
    106  CA        14.9200   18.4710   86.5410 C.3    83  SER83       0.2055
    107  C         14.6700   18.8100   85.0720 C.2    83  SER83       0.2643
    108  O         13.5400   18.7190   84.5890 O.2    83  SER83      -0.2714
    109  CB        13.9690   19.2850   87.4360 C.3    83  SER83       0.2130
    110  OG        14.3340   20.6570   87.5160 O.3    83  SER83      -0.2179
    111  N         15.7200   19.1950   84.3530 N.am   84  TYR84      -0.1959
    112  CA        15.5730   19.5280   82.9350 C.3    84  TYR84       0.1771
    113  C         16.3390   18.5640   82.0390 C.2    84  TYR84       0.2620
    114  O         15.7800   18.0060   81.1100 O.2    84  TYR84      -0.2715
    115  CB        16.0710   20.9520   82.6640 C.3    84  TYR84       0.0574
    116  CG        15.4110   22.0180   83.5060 C.ar   84  TYR84      -0.0198
    117  CD1       16.0980   23.1900   83.8440 C.ar   84  TYR84      -0.0009
    118  CD2       14.1010   21.8620   83.9640 C.ar   84  TYR84      -0.0009
    119  CE1       15.4980   24.1740   84.6180 C.ar   84  TYR84       0.0417
    120  CE2       13.4870   22.8430   84.7340 C.ar   84  TYR84       0.0417
    121  CZ        14.1860   23.9950   85.0590 C.ar   84  TYR84       0.1957
    122  OH        13.5660   24.9670   85.8050 O.3    84  TYR84      -0.2866
    123  N         17.6200   18.3680   82.3360 N.am   85  GLY85      -0.1954
    124  CA        18.4560   17.5000   81.5180 C.3    85  GLY85       0.1869
    125  C         18.6080   16.0450   81.9260 C.2    85  GLY85       0.2309
    126  O         19.4790   15.3410   81.4140 O.2    85  GLY85      -0.2863
    127  N         10.3170   29.4890   88.0790 N.3   100  GLN100     -0.1231
    128  CA        10.5730   30.9160   88.1420 C.3   100  GLN100      0.1698
    129  C         12.0370   31.2830   87.9100 C.2   100  GLN100      0.2592
    130  O         12.8930   31.0140   88.7410 O.2   100  GLN100     -0.2718
    131  CB        10.0860   31.4550   89.4840 C.3   100  GLN100      0.0381
    132  CG         8.6400   31.0830   89.7580 C.3   100  GLN100      0.0905
    133  CD         7.6690   31.6150   88.7070 C.2   100  GLN100      0.2608
    134  OE1        6.7170   30.9330   88.3220 O.2   100  GLN100     -0.2717
    135  NE2        7.8900   32.8410   88.2610 N.am  100  GLN100     -0.0878
    136  N         12.2980   31.8920   86.7570 N.am  101  PHE101     -0.1962
    137  CA        13.6310   32.3150   86.3630 C.3   101  PHE101      0.1771
    138  C         14.6300   31.1700   86.2200 C.2   101  PHE101      0.2620
    139  O         15.7500   31.2530   86.7270 O.2   101  PHE101     -0.2715
    140  CB        14.1760   33.3370   87.3600 C.3   101  PHE101      0.0574
    141  CG        13.2830   34.5290   87.5620 C.ar  101  PHE101     -0.0200
    142  CD1       12.4230   34.5970   88.6550 C.ar  101  PHE101     -0.0042
    143  CD2       13.3270   35.5990   86.6800 C.ar  101  PHE101     -0.0042
    144  CE1       11.6220   35.7210   88.8700 C.ar  101  PHE101     -0.0003
    145  CE2       12.5300   36.7310   86.8810 C.ar  101  PHE101     -0.0003
    146  CZ        11.6770   36.7930   87.9790 C.ar  101  PHE101     -0.0000
    147  N         14.2490   30.0980   85.5360 N.am  102  SER102     -0.1950
    148  CA        15.1870   28.9940   85.3790 C.3   102  SER102      0.1924
    149  C         14.8460   27.9970   84.2870 C.2   102  SER102      0.2314
    150  O         15.6710   27.1560   83.9490 O.2   102  SER102     -0.2863
    151  CB        15.3430   28.2390   86.7000 C.3   102  SER102      0.2116
    152  OG        14.2260   27.4090   86.9280 O.3   102  SER102     -0.2180
    153  N         17.1690   27.3810   81.3380 N.3   105  TYR105     -0.1241
    154  CA        18.3290   26.5070   81.4890 C.3   105  TYR105      0.1605
    155  C         18.0050   25.1280   80.9070 C.2   105  TYR105      0.2264
    156  O         18.8660   24.2560   80.8260 O.2   105  TYR105     -0.2867
    157  CB        18.7190   26.3710   82.9650 C.3   105  TYR105      0.0534
    158  CG        19.2350   27.6560   83.5540 C.ar  105  TYR105     -0.0201
    159  CD1       18.6080   28.2440   84.6520 C.ar  105  TYR105     -0.0009
    160  CD2       20.3010   28.3360   82.9570 C.ar  105  TYR105     -0.0009
    161  CE1       19.0160   29.4740   85.1340 C.ar  105  TYR105      0.0417
    162  CE2       20.7180   29.5770   83.4340 C.ar  105  TYR105      0.0417
    163  CZ        20.0690   30.1380   84.5190 C.ar  105  TYR105      0.1957
    164  OH        20.4570   31.3710   84.9770 O.3   105  TYR105     -0.2866
    165  N         24.0350   37.0640   89.6260 N.3   180  VAL180     -0.1245
    166  CA        24.8510   36.2870   88.6970 C.3   180  VAL180      0.1561
    167  C         25.9470   37.0880   87.9790 C.2   180  VAL180      0.2260
    168  O         25.7940   38.2720   87.6820 O.2   180  VAL180     -0.2867
    169  CB        23.9550   35.5880   87.6620 C.3   180  VAL180      0.0252
    170  CG1       23.0400   34.6050   88.3750 C.3   180  VAL180      0.0019
    171  CG2       23.1290   36.6200   86.8960 C.3   180  VAL180      0.0019
@<TRIPOS>BOND
     1   156   155    2
     2   155   154    1
     3   114   113    2
     4   153   154    1
     5   126   125    2
     6   154   157    1
     7   124   125    1
     8   124   123    1
     9   113   123   am
    10   113   112    1
    11   115   112    1
    12   115   116    1
    13   112   111    1
    14   160   162   ar
    15   160   158   ar
    16   157   158    1
    17   162   163   ar
    18   116   117   ar
    19   116   118   ar
    20   158   159   ar
    21   117   119   ar
    22   150   149    2
    23   118   120   ar
    24   104   102   ar
    25   149   148    1
    26   111   107   am
    27   163   164    1
    28   163   161   ar
    29   108   107    2
    30   119   121   ar
    31   159   161   ar
    32   120   121   ar
    33   103   102   ar
    34   102   101    1
    35   121   122    1
    36   107   106    1
    37   148   147    1
    38   148   151    1
    39   147   138   am
    40   138   137    1
    41   138   139    2
    42   137   136    1
    43   137   140    1
    44   101    98    1
    45   100    99    2
    46   106   105    1
    47   106   109    1
    48   143   145   ar
    49   143   141   ar
    50   151   152    1
    51   136   129   am
    52   145   146   ar
    53    24    23    1
    54   171   169    1
    55    99   105   am
    56    99    98    1
    57    76    74    1
    58   140   141    1
    59    98    97    1
    60   109   110    1
    61   141   142   ar
    62   169   170    1
    63   169   166    1
    64   168   167    2
    65   129   128    1
    66   129   130    2
    67   146   144   ar
    68   167   166    1
    69   127   128    1
    70   128   131    1
    71    22    23    1
    72    22    19    1
    73   135   133   am
    74    23    25    1
    75   134   133    2
    76   142   144   ar
    77    97    90   am
    78   166   165    1
    79   133   132    1
    80    74    73    1
    81    21    20    2
    82    96    94   am
    83    75    73    1
    84    73    70    1
    85   131   132    1
    86    20    19    1
    87    20    26   am
    88    19    18    1
    89    90    91    2
    90    90    89    1
    91    27    26    1
    92    27    28    1
    93    18    12   am
    94    94    93    1
    95    94    95    2
    96     1     2    1
    97    93    92    1
    98    70    69    1
    99    70    71    1
   100     6     7    1
   101     6     5    1
   102     2     5    1
   103     2     3    1
   104    92    89    1
   105    69    63   am
   106    29    28    2
   107    28    30   am
   108    89    88    1
   109     7     8    1
   110    12    11    1
   111    12    13    2
   112    71    72    2
   113    71    77   am
   114     4     3    2
   115    17    15   ar
   116    30    31    1
   117    63    62    1
   118    63    64    2
   119    77    78    1
   120    67    66   ar
   121    11    10    1
   122    11    14    1
   123    62    61    1
   124    62    65    1
   125    68    66   ar
   126    66    65    1
   127     8     9    1
   128    81    78    1
   129    78    79    1
   130    15    14    1
   131    15    16   ar
   132    31    32    1
   133    31    34    1
   134    60    58   ar
   135    36    32   am
   136    36    37    1
   137    32    33    2
   138    34    35    1
   139    37    38    1
   140    58    59   ar
   141    58    57    1
   142    79    80    2
   143    87    86    1
   144    86    83    1
   145    57    54    1
   146    38    39    2
   147    38    40   am
   148    48    47    1
   149    40    41    1
   150    54    53    1
   151    54    55    1
   152    83    82    1
   153    83    84    1
   154    53    51   am
   155    47    46    1
   156    84    85    2
   157    49    50    1
   158    45    46    1
   159    45    44    1
   160    56    55    2
   161    41    44    1
   162    41    42    1
   163    51    50    1
   164    51    52    2
   165    42    43    2
