@<TRIPOS>MOLECULE
tmp/1z3jA00.pdb
 133 133 0 0 0
SMALL
GASTEIGER

@<TRIPOS>ATOM
      1  N          4.5070   -9.2450  -12.4220 N.3    75  GLY75      -0.1210
      2  CA         4.7680   -7.9460  -13.0200 C.3    75  GLY75       0.1956
      3  C          4.7030   -6.8540  -11.9600 C.2    75  GLY75       0.2612
      4  O          5.4590   -6.8710  -10.9900 O.2    75  GLY75      -0.2717
      5  N          3.7690   -5.9280  -12.1260 N.am   76  ILE76      -0.1965
      6  CA         3.4610   -4.9070  -11.1560 C.3    76  ILE76       0.1727
      7  C          2.6370   -5.5720  -10.0530 C.2    76  ILE76       0.2616
      8  O          1.6470   -6.2650  -10.3160 O.2    76  ILE76      -0.2715
      9  CB         2.6600   -3.7860  -11.8580 C.3    76  ILE76       0.0290
     10  CG1        3.2000   -3.3350  -13.2300 C.3    76  ILE76       0.0022
     11  CG2        2.5440   -2.5480  -10.9590 C.3    76  ILE76       0.0023
     12  CD1        4.6320   -2.8100  -13.2290 C.3    76  ILE76       0.0001
     13  N          3.0940   -5.3950   -8.8130 N.am   77  LEU77      -0.1963
     14  CA         2.3570   -5.7460   -7.6110 C.3    77  LEU77       0.1728
     15  C          1.3970   -4.6160   -7.2370 C.2    77  LEU77       0.2616
     16  O          0.2850   -4.8980   -6.8140 O.2    77  LEU77      -0.2715
     17  CB         3.1910   -6.4280   -6.5920 C.3    77  LEU77       0.0311
     18  CG         3.1210   -7.9630   -6.6900 C.3    77  LEU77       0.0022
     19  CD1        3.3880   -8.4990   -8.1050 C.3    77  LEU77       0.0001
     20  CD2        4.2240   -8.5910   -5.8320 C.3    77  LEU77       0.0001
     21  N          1.7970   -3.3440   -7.3800 N.am   78  ALA78      -0.1963
     22  CA         0.8840   -2.2180   -7.1970 C.3    78  ALA78       0.1728
     23  C          1.5480   -0.8640   -7.4760 C.2    78  ALA78       0.2616
     24  O          2.7820   -0.7270   -7.4520 O.2    78  ALA78      -0.2715
     25  CB         0.3560   -2.1550   -5.7670 C.3    78  ALA78       0.0334
     26  N          0.7040    0.1490   -7.7130 N.am   79  HIS79      -0.1973
     27  CA         1.1130    1.4590   -8.2000 C.3    79  HIS79       0.1656
     28  C          0.3460    2.5900   -7.5230 C.2    79  HIS79       0.2291
     29  O         -0.8780    2.6290   -7.5680 O.2    79  HIS79      -0.2864
     30  CB         1.0930    1.5380   -9.7290 C.3    79  HIS79       0.0771
     31  CG        -0.2220    1.2330  -10.3990 C.ar   79  HIS79       0.0820
     32  ND1       -0.8690    0.0210  -10.4400 N.ar   79  HIS79      -0.2267
     33  CD2       -0.9280    2.1050  -11.1770 C.ar   79  HIS79       0.1154
     34  CE1       -1.9590    0.1620  -11.2090 C.ar   79  HIS79       0.1986
     35  NE2       -2.0660    1.4340  -11.6720 N.ar   79  HIS79      -0.2212
     36  N          2.1470   -6.1910    3.0940 N.3   110  LEU110     -0.1231
     37  CA         3.5250   -5.9050    2.7220 C.3   110  LEU110      0.1693
     38  C          3.5590   -4.8960    1.5800 C.2   110  LEU110      0.2592
     39  O          4.1220   -3.8090    1.7200 O.2   110  LEU110     -0.2718
     40  CB         4.2110   -7.2010    2.3200 C.3   110  LEU110      0.0284
     41  CG         5.7310   -7.1080    2.2920 C.3   110  LEU110      0.0019
     42  CD1        6.2080   -8.5670    2.2460 C.3   110  LEU110      0.0001
     43  CD2        6.3070   -6.2940    1.1340 C.3   110  LEU110      0.0001
     44  N          2.9370   -5.2400    0.4490 N.am  111  THR111     -0.1953
     45  CA         2.8550   -4.3030   -0.6600 C.3   111  THR111      0.1897
     46  C          2.1810   -3.0130   -0.2040 C.2   111  THR111      0.2313
     47  O          2.6300   -1.9210   -0.5490 O.2   111  THR111     -0.2863
     48  CB         2.2640   -5.0920   -1.7930 C.3   111  THR111      0.1794
     49  OG1        2.9640   -6.3370   -1.7190 O.3   111  THR111     -0.2208
     50  CG2        2.4790   -4.2960   -3.0820 C.3   111  THR111      0.0378
     51  N          4.5680   -0.3940    1.3540 N.3   114  HIS114     -0.1230
     52  CA         5.2620    0.2100    0.2140 C.3   114  HIS114      0.1707
     53  C          4.3670    1.2480   -0.4900 C.2   114  HIS114      0.2592
     54  O          4.7250    2.4260   -0.5610 O.2   114  HIS114     -0.2718
     55  CB         5.7560   -0.7530   -0.8410 C.3   114  HIS114      0.0473
     56  CG         6.5530   -0.1460   -1.9830 C.3   114  HIS114      0.0937
     57  ND1        7.4490   -0.9180   -2.6250 N.3   114  HIS114     -0.1997
     58  CD2        6.4150    0.9960   -2.7670 C.3   114  HIS114      0.1077
     59  CE1        7.6700   -0.3490   -3.8190 C.3   114  HIS114      0.1782
     60  NE2        7.2820    0.9200   -3.8820 N.3   114  HIS114     -0.1983
     61  N          3.2030    0.8600   -1.0090 N.am  115  GLU115     -0.1979
     62  CA         2.3520    1.8090   -1.7270 C.3   115  GLU115      0.1602
     63  C          1.8830    2.9730   -0.8430 C.2   115  GLU115      0.2287
     64  O          1.7570    4.1080   -1.2960 O.2   115  GLU115     -0.2864
     65  CB         1.0440    1.1410   -2.1380 C.3   115  GLU115      0.0415
     66  CG         1.1740   -0.0650   -3.0420 C.3   115  GLU115      0.1163
     67  CD         2.2260    0.1010   -4.1060 C.2   115  GLU115      0.3649
     68  OE1        2.3110    1.2010   -4.7080 O.co2 115  GLU115     -0.2457
     69  OE2        2.8800   -0.9390   -4.3020 O.co2 115  GLU115     -0.2457
     70  N          4.4050    5.4140   -0.6440 N.3   118  HIS118     -0.1241
     71  CA         4.2840    6.2730   -1.8250 C.3   118  HIS118      0.1621
     72  C          3.2340    7.3470   -1.5770 C.2   118  HIS118      0.2264
     73  O          3.4870    8.5130   -1.8580 O.2   118  HIS118     -0.2867
     74  CB         4.0460    5.5220   -3.1430 C.3   118  HIS118      0.0745
     75  CG         5.2480    4.7870   -3.6850 C.ar  118  HIS118      0.0817
     76  ND1        6.5720    5.1140   -3.4590 N.ar  118  HIS118     -0.2268
     77  CD2        5.2200    3.6830   -4.5120 C.ar  118  HIS118      0.1154
     78  CE1        7.2990    4.1730   -4.1000 C.ar  118  HIS118      0.1986
     79  NE2        6.5390    3.3130   -4.7980 N.ar  118  HIS118     -0.2212
     80  N         11.1450    5.9500   -3.6000 N.3   124  HIS124     -0.1241
     81  CA        11.8100    4.6470   -3.6500 C.3   124  HIS124      0.1621
     82  C         13.2270    4.5670   -3.0540 C.2   124  HIS124      0.2264
     83  O         14.1750    5.0780   -3.6480 O.2   124  HIS124     -0.2867
     84  CB        11.8640    4.2060   -5.1180 C.3   124  HIS124      0.0745
     85  CG        10.5220    3.8970   -5.7300 C.ar  124  HIS124      0.0817
     86  ND1        9.8650    4.6560   -6.6710 N.ar  124  HIS124     -0.2268
     87  CD2        9.7960    2.7530   -5.5390 C.ar  124  HIS124      0.1154
     88  CE1        8.7620    3.9780   -7.0360 C.ar  124  HIS124      0.1986
     89  NE2        8.6790    2.8080   -6.3820 N.ar  124  HIS124     -0.2212
     90  N         11.4890   -1.1070    3.2120 N.3   131  VAL131     -0.1245
     91  CA        10.2680   -1.5300    2.5570 C.3   131  VAL131      0.1561
     92  C          9.9380   -0.5600    1.4190 C.2   131  VAL131      0.2260
     93  O          9.2580   -0.9440    0.4700 O.2   131  VAL131     -0.2867
     94  CB         9.1490   -1.6550    3.5990 C.3   131  VAL131      0.0252
     95  CG1        7.8220   -2.0530    2.9360 C.3   131  VAL131      0.0019
     96  CG2        9.5010   -2.7180    4.6510 C.3   131  VAL131      0.0019
     97  N         11.6380    0.3890   -1.0610 N.3   133  PHE133     -0.1228
     98  CA        12.2830    0.0280   -2.3180 C.3   133  PHE133      0.1721
     99  C         11.2810   -0.3260   -3.4370 C.2   133  PHE133      0.2437
    100  O         10.1200   -0.6300   -3.1640 O.2   133  PHE133     -0.2733
    101  CB        13.3140   -1.0620   -2.0000 C.3   133  PHE133      0.0547
    102  CG        12.8340   -2.4220   -1.5280 C.ar  133  PHE133     -0.0202
    103  CD1       11.4970   -2.7120   -1.2170 C.ar  133  PHE133     -0.0042
    104  CD2       13.7980   -3.4250   -1.3710 C.ar  133  PHE133     -0.0042
    105  CE1       11.1400   -3.9730   -0.7440 C.ar  133  PHE133     -0.0003
    106  CE2       13.4340   -4.7000   -0.9280 C.ar  133  PHE133     -0.0003
    107  CZ        12.1040   -4.9670   -0.6020 C.ar  133  PHE133     -0.0000
    108  N         11.6900   -0.2960   -4.7170 N.am  134  PRO134     -0.2718
    109  CA        10.8140   -0.7250   -5.7980 C.3   134  PRO134      0.1535
    110  C         10.6470   -2.2490   -5.8030 C.2   134  PRO134      0.2599
    111  O          9.7070   -2.7680   -6.4020 O.2   134  PRO134     -0.2715
    112  CB        11.4990   -0.2610   -7.0790 C.3   134  PRO134      0.0310
    113  CG        12.9790   -0.2620   -6.7080 C.3   134  PRO134      0.0237
    114  CD        12.9810    0.1270   -5.2320 C.3   134  PRO134      0.0939
    115  N         11.5670   -2.9590   -5.1470 N.am  135  THR135     -0.1937
    116  CA        11.6490   -4.4040   -5.0890 C.3   135  THR135      0.2028
    117  C         10.5980   -4.9630   -4.1160 C.2   135  THR135      0.2642
    118  O          9.7980   -4.2220   -3.5460 O.2   135  THR135     -0.2714
    119  CB        13.1190   -4.6370   -4.7590 C.3   135  THR135      0.1808
    120  OG1       13.6720   -3.3850   -4.3850 O.3   135  THR135     -0.2208
    121  CG2       13.8570   -5.1190   -6.0110 C.3   135  THR135      0.0379
    122  N         10.5820   -6.2860   -3.9340 N.am  136  TYR136     -0.1973
    123  CA         9.7780   -6.9760   -2.9540 C.3   136  TYR136      0.1639
    124  C         10.7270   -7.9330   -2.2370 C.2   136  TYR136      0.2290
    125  O         11.6330   -8.4750   -2.8700 O.2   136  TYR136     -0.2864
    126  CB         8.7550   -7.8110   -3.7160 C.3   136  TYR136      0.0560
    127  CG         7.8840   -8.7400   -2.8950 C.ar  136  TYR136     -0.0198
    128  CD1        6.9590   -8.2300   -1.9780 C.ar  136  TYR136     -0.0009
    129  CD2        7.9350  -10.1230   -3.1190 C.ar  136  TYR136     -0.0009
    130  CE1        6.0500   -9.0790   -1.3440 C.ar  136  TYR136      0.0417
    131  CE2        7.0530  -10.9880   -2.4660 C.ar  136  TYR136      0.0417
    132  CZ         6.0880  -10.4680   -1.5800 C.ar  136  TYR136      0.1957
    133  OH         5.1810  -11.2780   -0.9580 O.3   136  TYR136     -0.2866
@<TRIPOS>BOND
     1    10    12    1
     2    10     9    1
     3     2     1    1
     4     2     3    1
     5     5     3   am
     6     5     6    1
     7     3     4    2
     8     9     6    1
     9     9    11    1
    10    35    34   ar
    11    35    33   ar
    12    34    32   ar
    13    33    31   ar
    14     6     7    1
    15    32    31   ar
    16    31    30    1
    17     8     7    2
    18     7    13   am
    19    30    27    1
    20    13    14    1
    21    27    26    1
    22    27    28    1
    23    19    18    1
    24    26    23   am
    25    14    15    1
    26    14    17    1
    27    29    28    2
    28    23    24    2
    29    23    22    1
    30    21    15   am
    31    21    22    1
    32    15    16    2
    33    22    25    1
    34   112   113    1
    35   112   109    1
    36    88    86   ar
    37    88    89   ar
    38   113   114    1
    39    18    17    1
    40    18    20    1
    41    86    85   ar
    42   111   110    2
    43    89    87   ar
    44   121   119    1
    45   110   109    1
    46   110   115   am
    47   109   108    1
    48    85    87   ar
    49    85    84    1
    50   114   108    1
    51   115   116    1
    52    84    81    1
    53   116   119    1
    54   116   117    1
    55    79    77   ar
    56    79    78   ar
    57   119   120    1
    58   108    99   am
    59    68    67   ar
    60    77    75   ar
    61    69    67   ar
    62   117   122   am
    63   117   118    2
    64    67    66    1
    65    78    76   ar
    66   122   123    1
    67    60    59    1
    68    60    58    1
    69    59    57    1
    70   126   123    1
    71   126   127    1
    72    75    76   ar
    73    75    74    1
    74    81    80    1
    75    81    82    1
    76    83    82    2
    77    99   100    2
    78    99    98    1
    79    74    71    1
    80   129   127   ar
    81   129   131   ar
    82    50    48    1
    83    66    65    1
    84   123   124    1
    85   127   128   ar
    86   125   124    2
    87    58    56    1
    88    57    56    1
    89   131   132   ar
    90    98   101    1
    91    98    97    1
    92    65    62    1
    93   101   102    1
    94    56    55    1
    95   128   130   ar
    96    73    72    2
    97    71    72    1
    98    71    70    1
    99    48    49    1
   100    48    45    1
   101    62    61    1
   102    62    63    1
   103   132   130   ar
   104   132   133    1
   105   102   104   ar
   106   102   103   ar
   107   104   106   ar
   108    64    63    2
   109   103   105   ar
   110    61    53   am
   111   106   107   ar
   112    55    52    1
   113   105   107   ar
   114    45    46    1
   115    45    44    1
   116    54    53    2
   117    47    46    2
   118    53    52    1
   119    52    51    1
   120    44    38   am
   121    93    92    2
   122    43    41    1
   123    92    91    1
   124    38    39    2
   125    38    37    1
   126    42    41    1
   127    41    40    1
   128    40    37    1
   129    91    90    1
   130    91    94    1
   131    37    36    1
   132    95    94    1
   133    94    96    1
