@<TRIPOS>MOLECULE
tmp/1z3vA00.pdb
 178 168 0 0 0
SMALL
GASTEIGER

@<TRIPOS>ATOM
      1  N         12.2140    8.5340   26.5670 N.3   171  GLN171     -0.1245
      2  CA        11.6340    9.3010   27.6730 C.3   171  GLN171      0.1566
      3  C         12.6620    9.5500   28.7610 C.2   171  GLN171      0.2260
      4  O         12.3310   10.1560   29.7730 O.2   171  GLN171     -0.2867
      5  CB        10.4450    8.5500   28.2780 C.3   171  GLN171      0.0367
      6  CG         9.4650    7.9070   27.2810 C.3   171  GLN171      0.0905
      7  CD         8.7820    8.9420   26.4210 C.2   171  GLN171      0.2608
      8  OE1        8.2950    9.9380   26.9410 O.2   171  GLN171     -0.2717
      9  NE2        8.7640    8.7270   25.1040 N.am  171  GLN171     -0.0878
     10  N          9.1160    2.8330   18.1900 N.3   208  ASP208     -0.1239
     11  CA         7.9420    2.1270   18.6660 C.3   208  ASP208      0.1674
     12  C          7.1870    1.4880   17.5050 C.2   208  ASP208      0.2266
     13  O          6.3470    2.1150   16.8490 O.2   208  ASP208     -0.2867
     14  CB         7.0550    3.0220   19.5280 C.3   208  ASP208      0.1410
     15  CG         7.7910    3.5290   20.7300 C.2   208  ASP208      0.3668
     16  OD1        8.5340    2.7190   21.3540 O.co2 208  ASP208     -0.2456
     17  OD2        7.6850    4.7060   21.1190 O.co2 208  ASP208     -0.2456
     18  N          2.4950    0.1790   19.6780 N.3   211  GLU211     -0.1245
     19  CA         1.9100    0.3970   21.0000 C.3   211  GLU211      0.1567
     20  C          0.4180    0.3630   20.7720 C.2   211  GLU211      0.2260
     21  O         -0.1060    1.1120   19.9390 O.2   211  GLU211     -0.2867
     22  CB         2.3250    1.7550   21.5550 C.3   211  GLU211      0.0388
     23  CG         3.8170    1.7980   21.8400 C.3   211  GLU211      0.1160
     24  CD         4.2020    3.1120   22.4690 C.2   211  GLU211      0.3649
     25  OE1        4.4560    4.0610   21.7040 O.co2 211  GLU211     -0.2457
     26  OE2        4.2170    3.1820   23.7190 O.co2 211  GLU211     -0.2457
     27  N          5.5610    4.8410   16.0770 N.3   220  THR220     -0.1218
     28  CA         6.1850    6.1140   16.4300 C.3   220  THR220      0.1862
     29  C          7.7100    6.0200   16.5240 C.2   220  THR220      0.2287
     30  O          8.2240    5.5150   17.5260 O.2   220  THR220     -0.2866
     31  CB         5.6780    6.5590   17.8190 C.3   220  THR220      0.1770
     32  OG1        4.2540    6.4890   17.8720 O.3   220  THR220     -0.2211
     33  CG2        6.0410    8.0490   18.0950 C.3   220  THR220      0.0375
     34  N         11.1780    7.7970   17.6260 N.3   222  HIS222     -0.1241
     35  CA        11.6350    8.8340   18.5650 C.3   222  HIS222      0.1621
     36  C         13.1680    8.9750   18.4950 C.2   222  HIS222      0.2264
     37  O         13.8810    8.2820   19.2240 O.2   222  HIS222     -0.2867
     38  CB        11.3350    8.3800   20.0140 C.3   222  HIS222      0.0745
     39  CG         9.8830    8.2170   20.3590 C.ar  222  HIS222      0.0817
     40  ND1        9.1750    9.1330   21.1140 N.ar  222  HIS222     -0.2268
     41  CD2        9.0360    7.1810   20.1420 C.ar  222  HIS222      0.1154
     42  CE1        7.9480    8.6860   21.3120 C.ar  222  HIS222      0.1986
     43  NE2        7.8460    7.4900   20.7540 N.ar  222  HIS222     -0.2212
     44  N         11.9400   15.9740   29.0820 N.3   239  ARG239     -0.1245
     45  CA        11.1470   15.5630   27.9400 C.3   239  ARG239      0.1563
     46  C         11.2810   16.5830   26.8020 C.2   239  ARG239      0.2260
     47  O         11.0520   17.7690   27.0320 O.2   239  ARG239     -0.2867
     48  CB         9.6960   15.5250   28.4080 C.3   239  ARG239      0.0307
     49  CG         8.7510   14.9890   27.3830 C.3   239  ARG239      0.0489
     50  CD         7.3130   15.0320   27.8320 C.3   239  ARG239      0.2205
     51  NE         6.4940   14.4490   26.7810 N.pl3 239  ARG239     -0.0865
     52  CZ         6.4810   13.1570   26.5100 C.cat 239  ARG239      0.5346
     53  NH1        7.1710   12.3170   27.2650 N.pl3 239  ARG239      0.1354
     54  NH2        5.7130   12.7060   25.5340 N.pl3 239  ARG239      0.1354
     55  N         10.6570   12.9810   23.1110 N.3   246  GLY246     -0.1210
     56  CA         9.7300   12.1810   23.8900 C.3   246  GLY246      0.1956
     57  C          8.3880   11.9650   23.2140 C.2   246  GLY246      0.2611
     58  O          7.7660   10.9310   23.4060 O.2   246  GLY246     -0.2717
     59  N          7.9090   12.9490   22.4510 N.am  247  ASP247     -0.1973
     60  CA         6.6210   12.8200   21.7900 C.3   247  ASP247      0.1709
     61  C          6.6850   11.8830   20.5900 C.2   247  ASP247      0.2293
     62  O          5.7260   11.1590   20.3420 O.2   247  ASP247     -0.2864
     63  CB         6.1620   14.1860   21.2540 C.3   247  ASP247      0.1436
     64  CG         5.7710   15.1830   22.3540 C.2   247  ASP247      0.3671
     65  OD1        5.7640   14.8320   23.5590 O.co2 247  ASP247     -0.2456
     66  OD2        5.4160   16.3600   22.0630 O.co2 247  ASP247     -0.2456
     67  N          4.1870   10.2170   15.4190 N.3   250  ASP250     -0.1239
     68  CA         3.2820    9.0740   15.5250 C.3   250  ASP250      0.1674
     69  C          2.2830    8.9370   14.3850 C.2   250  ASP250      0.2266
     70  O          1.7910    9.9340   13.8370 O.2   250  ASP250     -0.2867
     71  CB         2.4910    9.1550   16.8200 C.3   250  ASP250      0.1410
     72  CG         1.6350   10.4090   16.8820 C.2   250  ASP250      0.3668
     73  OD1        2.2080   11.5080   16.7250 O.co2 250  ASP250     -0.2456
     74  OD2        0.4060   10.3760   17.0960 O.co2 250  ASP250     -0.2456
     75  N         -6.2270    8.8590   15.2170 N.3   255  ARG255     -0.1245
     76  CA        -5.7570   10.2250   15.3860 C.3   255  ARG255      0.1563
     77  C         -5.6030   10.8940   14.0190 C.2   255  ARG255      0.2260
     78  O         -5.8600   12.1090   13.8560 O.2   255  ARG255     -0.2867
     79  CB        -4.4090   10.2450   16.1060 C.3   255  ARG255      0.0307
     80  CG        -4.0120   11.6610   16.4990 C.3   255  ARG255      0.0489
     81  CD        -2.7660   11.7590   17.3540 C.3   255  ARG255      0.2205
     82  NE        -2.6480   13.1110   17.8950 N.pl3 255  ARG255     -0.0865
     83  CZ        -1.5260   13.7920   18.0000 C.cat 255  ARG255      0.5346
     84  NH1       -0.3520   13.2340   17.6810 N.pl3 255  ARG255      0.1354
     85  NH2       -1.5700   15.0370   18.4780 N.pl3 255  ARG255      0.1354
     86  N          2.4980   17.7480   12.7300 N.3   330  LYS330     -0.1245
     87  CA         2.9150   18.5110   13.9150 C.3   330  LYS330      0.1561
     88  C          2.3220   19.9140   13.7730 C.2   330  LYS330      0.2260
     89  O          1.7370   20.4310   14.7210 O.2   330  LYS330     -0.2867
     90  CB         4.4430   18.6060   14.0100 C.3   330  LYS330      0.0271
     91  CG         5.1300   17.3370   14.5470 C.3   330  LYS330      0.0035
     92  CD         4.5660   16.9080   15.8990 C.3   330  LYS330      0.0206
     93  CE         5.2130   15.5740   16.3410 C.3   330  LYS330      0.1093
     94  NZ         4.6210   15.0340   17.5990 N.3   330  LYS330     -0.1314
     95  N          1.5960   20.7920   17.4910 N.3   335  ASP335     -0.1239
     96  CA         2.6520   20.2300   18.3400 C.3   335  ASP335      0.1674
     97  C          3.9970   20.6520   17.8040 C.2   335  ASP335      0.2266
     98  O          4.1620   20.8430   16.5980 O.2   335  ASP335     -0.2867
     99  CB         2.5840   18.6940   18.3620 C.3   335  ASP335      0.1410
    100  CG         1.3220   18.1570   19.0130 C.2   335  ASP335      0.3668
    101  OD1        0.7590   18.8100   19.9270 O.co2 335  ASP335     -0.2456
    102  OD2        0.8160   17.0540   18.7100 O.co2 335  ASP335     -0.2456
    103  N          1.8220   -2.9580   29.9610 N.3   363  TRP363     -0.1241
    104  CA         1.9200   -1.9440   31.0090 C.3   363  TRP363      0.1605
    105  C          0.6650   -1.0910   31.1140 C.2   363  TRP363      0.2264
    106  O         -0.1100   -1.0100   30.1540 O.2   363  TRP363     -0.2867
    107  CB         3.1630   -1.0490   30.8340 C.3   363  TRP363      0.0550
    108  CG         3.3290   -0.2880   29.5140 C.ar  363  TRP363      0.0003
    109  CD1        3.6240   -0.8090   28.2710 C.ar  363  TRP363      0.0946
    110  CD2        3.2560    1.1380   29.3360 C.ar  363  TRP363      0.0152
    111  NE1        3.7330    0.2150   27.3520 N.ar  363  TRP363     -0.2442
    112  CE2        3.4960    1.4090   27.9750 C.ar  363  TRP363      0.0810
    113  CE3        3.0130    2.2170   30.1980 C.ar  363  TRP363      0.0012
    114  CZ2        3.5050    2.7000   27.4580 C.ar  363  TRP363      0.0191
    115  CZ3        2.9940    3.5070   29.6760 C.ar  363  TRP363      0.0001
    116  CH2        3.2550    3.7350   28.3170 C.ar  363  TRP363      0.0015
    117  N         -0.3120    3.0660   32.6840 N.3   365  ASP365     -0.1239
    118  CA         0.3390    4.3620   32.5170 C.3   365  ASP365      0.1674
    119  C         -0.0080    5.2840   33.6840 C.2   365  ASP365      0.2266
    120  O         -1.0900    5.8660   33.7250 O.2   365  ASP365     -0.2867
    121  CB        -0.1350    4.9730   31.1950 C.3   365  ASP365      0.1410
    122  CG         0.4330    6.3560   30.9350 C.2   365  ASP365      0.3668
    123  OD1       -0.0080    6.9740   29.9450 O.co2 365  ASP365     -0.2456
    124  OD2        1.3290    6.9010   31.6120 O.co2 365  ASP365     -0.2456
    125  N          1.3840    8.1050   34.3580 N.3   367  ALA367     -0.1231
    126  CA         1.5060    9.5160   33.9970 C.3   367  ALA367      0.1694
    127  C          0.2500   10.0550   33.3190 C.2   367  ALA367      0.2591
    128  O         -0.2750   11.1180   33.6960 O.2   367  ALA367     -0.2718
    129  CB         2.7300    9.7470   33.1070 C.3   367  ALA367      0.0304
    130  N         -0.2520    9.3190   32.3330 N.am  368  ALA368     -0.1980
    131  CA        -1.2860    9.8400   31.4430 C.3   368  ALA368      0.1597
    132  C         -2.4480    8.8860   31.1790 C.2   368  ALA368      0.2287
    133  O         -3.2550    9.1400   30.2830 O.2   368  ALA368     -0.2864
    134  CB        -0.6750   10.3220   30.1330 C.3   368  ALA368      0.0319
    135  N         -3.3310    9.2210   25.7650 N.3   372  TRP372     -0.1241
    136  CA        -2.6550    9.6300   24.5360 C.3   372  TRP372      0.1605
    137  C         -2.7680    8.5360   23.4740 C.2   372  TRP372      0.2264
    138  O         -2.6870    8.8240   22.2780 O.2   372  TRP372     -0.2867
    139  CB        -1.1870    9.9320   24.8190 C.3   372  TRP372      0.0550
    140  CG        -0.4880    8.7520   25.4250 C.ar  372  TRP372      0.0003
    141  CD1       -0.3820    8.4490   26.7470 C.ar  372  TRP372      0.0946
    142  CD2        0.1790    7.6910   24.7180 C.ar  372  TRP372      0.0152
    143  NE1        0.3100    7.2700   26.9140 N.ar  372  TRP372     -0.2442
    144  CE2        0.6670    6.7860   25.6850 C.ar  372  TRP372      0.0810
    145  CE3        0.3940    7.4110   23.3670 C.ar  372  TRP372      0.0012
    146  CZ2        1.3760    5.6230   25.3480 C.ar  372  TRP372      0.0191
    147  CZ3        1.1160    6.2610   23.0280 C.ar  372  TRP372      0.0001
    148  CH2        1.5750    5.3750   24.0190 C.ar  372  TRP372      0.0015
    149  N         -6.6040   13.5950   24.2520 N.3   377  TYR377     -0.1227
    150  CA        -5.3550   14.0530   24.8510 C.3   377  TYR377      0.1725
    151  C         -4.7770   15.2220   24.0540 C.2   377  TYR377      0.2475
    152  O         -4.8440   15.2160   22.8140 O.2   377  TYR377     -0.2730
    153  CB        -4.3490   12.8760   24.8740 C.3   377  TYR377      0.0547
    154  CG        -3.2550   13.0870   25.8830 C.ar  377  TYR377     -0.0200
    155  CD1       -3.5070   12.8990   27.2370 C.ar  377  TYR377     -0.0009
    156  CD2       -1.9860   13.5050   25.4900 C.ar  377  TYR377     -0.0009
    157  CE1       -2.5200   13.1220   28.1820 C.ar  377  TYR377      0.0417
    158  CE2       -0.9840   13.7220   26.4310 C.ar  377  TYR377      0.0417
    159  CZ        -1.2680   13.5250   27.7730 C.ar  377  TYR377      0.1957
    160  OH        -0.3090   13.7330   28.7310 O.3   377  TYR377     -0.2866
    161  N         -4.1860   16.2210   24.7020 N.am  378  PRO378     -0.2506
    162  CA        -4.1860   16.4020   26.1630 C.3   378  PRO378      0.1487
    163  C         -5.5970   16.6650   26.6930 C.2   378  PRO378      0.2276
    164  O         -6.4930   16.9680   25.8910 O.2   378  PRO378     -0.2865
    165  CB        -3.3210   17.6480   26.3850 C.3   378  PRO378      0.0556
    166  CG        -3.0310   18.2510   25.0540 C.2   378  PRO378     -0.0078
    167  CD        -3.4800   17.2950   23.9870 C.2   378  PRO378      0.0634
    168  N         -7.7560   10.2970   19.9360 N.3   390  ARG390     -0.1245
    169  CA        -6.9140    9.1730   19.4800 C.3   390  ARG390      0.1563
    170  C         -7.5900    7.7950   19.5060 C.2   390  ARG390      0.2260
    171  O         -7.0860    6.8040   18.9310 O.2   390  ARG390     -0.2867
    172  CB        -5.6640    9.1530   20.3570 C.3   390  ARG390      0.0307
    173  CG        -4.8040   10.4110   20.2640 C.3   390  ARG390      0.0489
    174  CD        -4.9830   11.3840   21.4550 C.3   390  ARG390      0.2205
    175  NE        -4.1800   12.5950   21.3220 N.pl3 390  ARG390     -0.0865
    176  CZ        -2.8620   12.6960   21.4130 C.cat 390  ARG390      0.5346
    177  NH1       -2.0890   11.6150   21.6050 N.pl3 390  ARG390      0.1354
    178  NH2       -2.3150   13.9060   21.3030 N.pl3 390  ARG390      0.1354
@<TRIPOS>BOND
     1    86    87    1
     2    88    87    1
     3    88    89    2
     4    70    69    2
     5    78    77    2
     6    87    90    1
     7    90    91    1
     8    77    76    1
     9    69    68    1
    10    91    92    1
    11    75    76    1
    12    76    79    1
    13    67    68    1
    14    68    71    1
    15    92    93    1
    16    27    28    1
    17    79    80    1
    18    93    94    1
    19    28    29    1
    20    28    31    1
    21    80    81    1
    22    29    30    2
    23    98    97    2
    24    73    72   ar
    25    71    72    1
    26    13    12    2
    27    72    74   ar
    28    81    82    1
    29    95    96    1
    30    12    11    1
    31    34    35    1
    32    84    83    1
    33    97    96    1
    34    31    32    1
    35    31    33    1
    36    82    83    2
    37    83    85    1
    38    10    11    1
    39    96    99    1
    40    99   100    1
    41    36    35    1
    42    36    37    2
    43    35    38    1
    44    11    14    1
    45   102   100   ar
    46   171   170    2
    47   100   101   ar
    48   169   170    1
    49   169   168    1
    50   169   172    1
    51    14    15    1
    52    18    19    1
    53    21    20    2
    54    38    39    1
    55    41    39   ar
    56    41    43   ar
    57   173   172    1
    58   173   174    1
    59    62    61    2
    60    39    40   ar
    61    61    60    1
    62    15    17   ar
    63    15    16   ar
    64    43    42   ar
    65    20    19    1
    66    19    22    1
    67    40    42   ar
    68    63    60    1
    69    63    64    1
    70   178   176    1
    71   175   176    2
    72   175   174    1
    73   176   177    1
    74    22    23    1
    75    25    24   ar
    76    60    59    1
    77    23    24    1
    78    66    64   ar
    79   138   137    2
    80    64    65   ar
    81    59    57   am
    82    24    26   ar
    83   152   151    2
    84   147   145   ar
    85   147   148   ar
    86    55    56    1
    87    57    58    2
    88    57    56    1
    89   145   142   ar
    90   137   136    1
    91   167   161    1
    92   167   166    2
    93   148   146   ar
    94   151   161   am
    95   151   150    1
    96   149   150    1
    97   136   139    1
    98   136   135    1
    99   161   162    1
   100   142   140   ar
   101   142   144   ar
   102   139   140    1
   103   150   153    1
   104   153   154    1
   105   166   165    1
   106     9     7   am
   107   146   144   ar
   108   140   141   ar
   109   156   154   ar
   110   156   158   ar
   111    54    52    1
   112   144   143   ar
   113   154   155   ar
   114   164   163    2
   115   162   165    1
   116   162   163    1
   117     7     8    2
   118     7     6    1
   119   158   159   ar
   120    52    51    2
   121    52    53    1
   122     1     2    1
   123   141   143   ar
   124    51    50    1
   125    46    47    2
   126    46    45    1
   127   155   157   ar
   128     6     5    1
   129   111   112   ar
   130   111   109   ar
   131    49    50    1
   132    49    48    1
   133   114   112   ar
   134   114   116   ar
   135     2     5    1
   136     2     3    1
   137   159   157   ar
   138   159   160    1
   139    45    48    1
   140    45    44    1
   141   112   110   ar
   142   109   108   ar
   143   116   115   ar
   144     3     4    2
   145   110   108   ar
   146   110   113   ar
   147   108   107    1
   148   115   113   ar
   149   123   122   ar
   150   103   104    1
   151   134   131    1
   152   106   105    2
   153   133   132    2
   154   107   104    1
   155   122   121    1
   156   122   124   ar
   157   104   105    1
   158   132   131    1
   159   121   118    1
   160   131   130    1
   161   130   127   am
   162   118   117    1
   163   118   119    1
   164   129   126    1
   165   127   128    2
   166   127   126    1
   167   119   120    2
   168   126   125    1
