@<TRIPOS>MOLECULE
tmp/1z3wA01.pdb
 177 167 0 0 0
SMALL
GASTEIGER

@<TRIPOS>ATOM
      1  N         12.2610    8.4220   26.3680 N.3   171  GLN171     -0.1245
      2  CA        11.6790    9.1690   27.4900 C.3   171  GLN171      0.1566
      3  C         12.7210    9.4880   28.5580 C.2   171  GLN171      0.2260
      4  O         12.4150   10.1390   29.5550 O.2   171  GLN171     -0.2867
      5  CB        10.4850    8.4390   28.1050 C.3   171  GLN171      0.0367
      6  CG         9.4480    7.9590   27.0900 C.3   171  GLN171      0.0905
      7  CD         8.9140    9.1130   26.2560 C.2   171  GLN171      0.2608
      8  OE1        8.7370   10.2190   26.7720 O.2   171  GLN171     -0.2717
      9  NE2        8.6660    8.8610   24.9750 N.am  171  GLN171     -0.0878
     10  N         14.6930    5.5510   19.8760 N.3   206  GLU206     -0.1245
     11  CA        13.6920    4.5170   20.0730 C.3   206  GLU206      0.1567
     12  C         12.8120    4.4600   18.8420 C.2   206  GLU206      0.2260
     13  O         12.3560    5.4980   18.3550 O.2   206  GLU206     -0.2867
     14  CB        12.8400    4.8760   21.2960 C.3   206  GLU206      0.0388
     15  CG        11.7470    3.8720   21.6190 C.3   206  GLU206      0.1160
     16  CD        10.9050    4.2690   22.8240 C.2   206  GLU206      0.3649
     17  OE1       11.2200    5.2890   23.4920 O.co2 206  GLU206     -0.2457
     18  OE2        9.9320    3.5340   23.1220 O.co2 206  GLU206     -0.2457
     19  N          9.3070    2.9440   18.0830 N.3   208  ASP208     -0.1239
     20  CA         8.1310    2.2160   18.5370 C.3   208  ASP208      0.1674
     21  C          7.3780    1.5750   17.3890 C.2   208  ASP208      0.2266
     22  O          6.5310    2.1910   16.7580 O.2   208  ASP208     -0.2867
     23  CB         7.2270    3.1190   19.3700 C.3   208  ASP208      0.1410
     24  CG         7.9190    3.5940   20.6110 C.2   208  ASP208      0.3668
     25  OD1        8.5270    2.7310   21.2770 O.co2 208  ASP208     -0.2456
     26  OD2        7.9010    4.7780   21.0130 O.co2 208  ASP208     -0.2456
     27  N          2.6380    0.2270   19.5960 N.3   211  GLU211     -0.1245
     28  CA         2.1390    0.5990   20.8970 C.3   211  GLU211      0.1567
     29  C          0.6480    0.5640   20.6990 C.2   211  GLU211      0.2260
     30  O          0.1280    1.3710   19.9460 O.2   211  GLU211     -0.2867
     31  CB         2.5980    1.9850   21.3520 C.3   211  GLU211      0.0388
     32  CG         4.0490    2.0290   21.8130 C.3   211  GLU211      0.1160
     33  CD         4.4020    3.3940   22.3530 C.2   211  GLU211      0.3649
     34  OE1        4.7200    4.2800   21.5360 O.co2 211  GLU211     -0.2457
     35  OE2        4.3540    3.5910   23.5930 O.co2 211  GLU211     -0.2457
     36  N          5.7360    4.8790   15.9150 N.3   220  THR220     -0.1218
     37  CA         6.3870    6.1460   16.2420 C.3   220  THR220      0.1862
     38  C          7.9130    6.0820   16.3710 C.2   220  THR220      0.2287
     39  O          8.4130    5.5580   17.3640 O.2   220  THR220     -0.2866
     40  CB         5.8580    6.6270   17.6030 C.3   220  THR220      0.1770
     41  OG1        4.4300    6.5880   17.6420 O.3   220  THR220     -0.2211
     42  CG2        6.2480    8.0980   17.8350 C.3   220  THR220      0.0375
     43  N         11.3980    7.8260   17.4130 N.3   222  HIS222     -0.1241
     44  CA        11.8890    8.8380   18.3480 C.3   222  HIS222      0.1621
     45  C         13.3960    8.9990   18.2370 C.2   222  HIS222      0.2264
     46  O         14.1400    8.2550   18.8730 O.2   222  HIS222     -0.2867
     47  CB        11.6600    8.3550   19.7800 C.3   222  HIS222      0.0745
     48  CG        10.2270    8.2750   20.1940 C.ar  222  HIS222      0.0817
     49  ND1        9.5720    9.3120   20.8290 N.ar  222  HIS222     -0.2268
     50  CD2        9.3370    7.2580   20.1120 C.ar  222  HIS222      0.1154
     51  CE1        8.3320    8.9390   21.0990 C.ar  222  HIS222      0.1986
     52  NE2        8.1640    7.6980   20.6770 N.ar  222  HIS222     -0.2212
     53  N         12.0720   15.7250   28.6480 N.3   239  ARG239     -0.1245
     54  CA        11.4100   15.3170   27.4180 C.3   239  ARG239      0.1563
     55  C         11.3870   16.4500   26.3990 C.2   239  ARG239      0.2260
     56  O         11.0110   17.5820   26.7340 O.2   239  ARG239     -0.2867
     57  CB         9.9770   14.8900   27.7090 C.3   239  ARG239      0.0307
     58  CG         9.8600   13.6080   28.5220 C.3   239  ARG239      0.0489
     59  CD         8.6840   12.7310   28.1370 C.3   239  ARG239      0.2205
     60  NE         7.6970   13.4720   27.3610 N.pl3 239  ARG239     -0.0865
     61  CZ         6.6660   12.9210   26.7390 C.cat 239  ARG239      0.5346
     62  NH1        6.4690   11.6090   26.7870 N.pl3 239  ARG239      0.1354
     63  NH2        5.8250   13.6940   26.0670 N.pl3 239  ARG239      0.1354
     64  N         10.7010   12.9810   22.8500 N.3   246  GLY246     -0.1210
     65  CA         9.8190   12.1220   23.6260 C.3   246  GLY246      0.1956
     66  C          8.4420   11.9550   23.0110 C.2   246  GLY246      0.2611
     67  O          7.7740   10.9460   23.2290 O.2   246  GLY246     -0.2717
     68  N          8.0130   12.9360   22.2180 N.am  247  ASP247     -0.1973
     69  CA         6.7240   12.8470   21.5590 C.3   247  ASP247      0.1709
     70  C          6.7970   11.8990   20.3670 C.2   247  ASP247      0.2293
     71  O          5.8720   11.1430   20.1210 O.2   247  ASP247     -0.2864
     72  CB         6.2780   14.2160   21.0470 C.3   247  ASP247      0.1436
     73  CG         5.9300   15.1760   22.1740 C.2   247  ASP247      0.3671
     74  OD1        5.8210   14.7300   23.3380 O.co2 247  ASP247     -0.2456
     75  OD2        5.7490   16.3990   21.9750 O.co2 247  ASP247     -0.2456
     76  N          4.3800   10.2820   15.3980 N.3   250  ASP250     -0.1239
     77  CA         3.4790    9.1490   15.5410 C.3   250  ASP250      0.1674
     78  C          2.5100    9.0330   14.3880 C.2   250  ASP250      0.2266
     79  O          2.0460   10.0520   13.8500 O.2   250  ASP250     -0.2867
     80  CB         2.6920    9.2870   16.8390 C.3   250  ASP250      0.1410
     81  CG         1.9090   10.5790   16.8910 C.2   250  ASP250      0.3668
     82  OD1        2.5270   11.6460   16.6810 O.co2 250  ASP250     -0.2456
     83  OD2        0.6940   10.5990   17.1340 O.co2 250  ASP250     -0.2456
     84  N         -6.0070    9.0510   15.2440 N.3   255  ARG255     -0.1245
     85  CA        -5.4650   10.4020   15.3790 C.3   255  ARG255      0.1563
     86  C         -5.2840   11.0560   14.0130 C.2   255  ARG255      0.2260
     87  O         -5.4270   12.2780   13.8660 O.2   255  ARG255     -0.2867
     88  CB        -4.1280   10.3940   16.1280 C.3   255  ARG255      0.0307
     89  CG        -3.6180   11.8050   16.4760 C.3   255  ARG255      0.0489
     90  CD        -2.4030   11.8610   17.4130 C.3   255  ARG255      0.2205
     91  NE        -2.2770   13.2120   17.9680 N.pl3 255  ARG255     -0.0865
     92  CZ        -1.1620   13.9080   18.0790 C.cat 255  ARG255      0.5346
     93  NH1        0.0060   13.3990   17.7140 N.pl3 255  ARG255      0.1354
     94  NH2       -1.2190   15.1480   18.5620 N.pl3 255  ARG255      0.1354
     95  N          2.8430   17.8490   12.7050 N.3   330  LYS330     -0.1245
     96  CA         3.2090   18.6210   13.8830 C.3   330  LYS330      0.1561
     97  C          2.5870   20.0160   13.7620 C.2   330  LYS330      0.2260
     98  O          1.9910   20.5340   14.7080 O.2   330  LYS330     -0.2867
     99  CB         4.7260   18.7420   13.9800 C.3   330  LYS330      0.0271
    100  CG         5.4200   17.4470   14.4230 C.3   330  LYS330      0.0035
    101  CD         4.7970   16.8980   15.6980 C.3   330  LYS330      0.0206
    102  CE         5.5280   15.6260   16.1550 C.3   330  LYS330      0.1093
    103  NZ         4.8930   15.0230   17.3700 N.3   330  LYS330     -0.1314
    104  N          1.8880   20.6840   17.6460 N.3   335  ASP335     -0.1239
    105  CA         3.0350   20.1780   18.3940 C.3   335  ASP335      0.1674
    106  C          4.3320   20.6360   17.7660 C.2   335  ASP335      0.2266
    107  O          4.4610   20.6770   16.5440 O.2   335  ASP335     -0.2867
    108  CB         3.0160   18.6490   18.4480 C.3   335  ASP335      0.1410
    109  CG         1.7210   18.1100   19.0110 C.2   335  ASP335      0.3668
    110  OD1        1.1880   18.7040   19.9700 O.co2 335  ASP335     -0.2456
    111  OD2        1.1670   17.0810   18.5780 O.co2 335  ASP335     -0.2456
    112  N          2.2110   -2.6290   29.8170 N.3   363  TRP363     -0.1241
    113  CA         2.2400   -1.6810   30.9100 C.3   363  TRP363      0.1605
    114  C          0.9680   -0.8420   31.0150 C.2   363  TRP363      0.2264
    115  O          0.2170   -0.6990   30.0510 O.2   363  TRP363     -0.2867
    116  CB         3.4600   -0.7570   30.7910 C.3   363  TRP363      0.0550
    117  CG         3.5980    0.0610   29.5060 C.ar  363  TRP363      0.0003
    118  CD1        3.9440   -0.4000   28.2590 C.ar  363  TRP363      0.0946
    119  CD2        3.4280    1.4780   29.3640 C.ar  363  TRP363      0.0152
    120  NE1        3.9960    0.6410   27.3590 N.ar  363  TRP363     -0.2442
    121  CE2        3.6810    1.8030   28.0140 C.ar  363  TRP363      0.0810
    122  CE3        3.1130    2.5150   30.2520 C.ar  363  TRP363      0.0012
    123  CZ2        3.5990    3.1150   27.5230 C.ar  363  TRP363      0.0191
    124  CZ3        3.0340    3.8080   29.7700 C.ar  363  TRP363      0.0001
    125  CH2        3.2730    4.1000   28.4180 C.ar  363  TRP363      0.0015
    126  N         -0.2030    3.2190   32.6970 N.3   365  ASP365     -0.1239
    127  CA         0.3990    4.5350   32.5420 C.3   365  ASP365      0.1674
    128  C          0.0320    5.4520   33.7080 C.2   365  ASP365      0.2266
    129  O         -1.0740    5.9970   33.7700 O.2   365  ASP365     -0.2867
    130  CB        -0.0750    5.1400   31.2180 C.3   365  ASP365      0.1410
    131  CG         0.4250    6.5430   30.9880 C.2   365  ASP365      0.3668
    132  OD1        1.2140    7.0680   31.8000 O.co2 365  ASP365     -0.2456
    133  OD2        0.0700    7.1960   29.9820 O.co2 365  ASP365     -0.2456
    134  N         -3.2080    9.3690   25.8170 N.3   372  TRP372     -0.1241
    135  CA        -2.5100    9.8060   24.6230 C.3   372  TRP372      0.1605
    136  C         -2.6350    8.7370   23.5430 C.2   372  TRP372      0.2264
    137  O         -2.4940    9.0390   22.3660 O.2   372  TRP372     -0.2867
    138  CB        -1.0300   10.0390   24.9370 C.3   372  TRP372      0.0550
    139  CG        -0.3730    8.8200   25.5200 C.ar  372  TRP372      0.0003
    140  CD1       -0.2540    8.5010   26.8450 C.ar  372  TRP372      0.0946
    141  CD2        0.2130    7.7360   24.7980 C.ar  372  TRP372      0.0152
    142  NE1        0.3880    7.2940   26.9890 N.ar  372  TRP372     -0.2442
    143  CE2        0.6840    6.8020   25.7460 C.ar  372  TRP372      0.0810
    144  CE3        0.3970    7.4640   23.4410 C.ar  372  TRP372      0.0012
    145  CZ2        1.3260    5.6240   25.3800 C.ar  372  TRP372      0.0191
    146  CZ3        1.0520    6.3000   23.0800 C.ar  372  TRP372      0.0001
    147  CH2        1.4930    5.3890   24.0460 C.ar  372  TRP372      0.0015
    148  N         -6.3310   13.8820   24.1340 N.3   377  TYR377     -0.1228
    149  CA        -5.1410   14.3500   24.8190 C.3   377  TYR377      0.1721
    150  C         -4.5500   15.5280   24.0650 C.2   377  TYR377      0.2437
    151  O         -4.5040   15.5120   22.8300 O.2   377  TYR377     -0.2733
    152  CB        -4.1190   13.2060   24.8910 C.3   377  TYR377      0.0547
    153  CG        -3.1290   13.3770   26.0070 C.ar  377  TYR377     -0.0200
    154  CD1       -3.4820   13.0680   27.3150 C.ar  377  TYR377     -0.0009
    155  CD2       -1.8580   13.8810   25.7670 C.ar  377  TYR377     -0.0009
    156  CE1       -2.6010   13.2540   28.3470 C.ar  377  TYR377      0.0417
    157  CE2       -0.9570   14.0670   26.8070 C.ar  377  TYR377      0.0417
    158  CZ        -1.3390   13.7500   28.0900 C.ar  377  TYR377      0.1957
    159  OH        -0.4600   13.9280   29.1330 O.3   377  TYR377     -0.2866
    160  N         -4.0910   16.5500   24.7810 N.am  378  PRO378     -0.2729
    161  CA        -4.2060   16.6620   26.2440 C.3   378  PRO378      0.1401
    162  C         -5.6550   16.8330   26.7040 C.2   378  PRO378      0.2269
    163  O         -6.4930   17.1640   25.8730 O.2   378  PRO378     -0.2865
    164  CB        -3.4360   17.9460   26.5580 C.3   378  PRO378      0.0296
    165  CG        -2.6510   18.2720   25.3400 C.3   378  PRO378      0.0237
    166  CD        -3.4130   17.7110   24.1820 C.3   378  PRO378      0.0939
    167  N         -7.4740   10.5430   19.8960 N.3   390  ARG390     -0.1245
    168  CA        -6.6210    9.4270   19.4560 C.3   390  ARG390      0.1563
    169  C         -7.3180    8.0620   19.5280 C.2   390  ARG390      0.2260
    170  O         -6.8550    7.0710   18.9360 O.2   390  ARG390     -0.2867
    171  CB        -5.3410    9.3830   20.2900 C.3   390  ARG390      0.0307
    172  CG        -4.5080   10.6480   20.2280 C.3   390  ARG390      0.0489
    173  CD        -4.6650   11.5520   21.4490 C.3   390  ARG390      0.2205
    174  NE        -3.8930   12.7840   21.3200 N.pl3 390  ARG390     -0.0865
    175  CZ        -2.5810   12.8920   21.4430 C.cat 390  ARG390      0.5346
    176  NH1       -1.8380   11.8200   21.6780 N.pl3 390  ARG390      0.1354
    177  NH2       -2.0060   14.0800   21.3230 N.pl3 390  ARG390      0.1354
@<TRIPOS>BOND
     1    95    96    1
     2    97    96    1
     3    97    98    2
     4    79    78    2
     5    87    86    2
     6    96    99    1
     7    99   100    1
     8    86    85    1
     9    78    77    1
    10   100   101    1
    11    84    85    1
    12    85    88    1
    13    76    77    1
    14    77    80    1
    15   101   102    1
    16    36    37    1
    17    88    89    1
    18   102   103    1
    19    37    38    1
    20    37    40    1
    21    38    39    2
    22    89    90    1
    23   107   106    2
    24    82    81   ar
    25    22    21    2
    26    80    81    1
    27    81    83   ar
    28    21    20    1
    29    43    44    1
    30    90    91    1
    31    40    41    1
    32    40    42    1
    33   104   105    1
    34    93    92    1
    35   106   105    1
    36    91    92    2
    37    92    94    1
    38    19    20    1
    39    45    44    1
    40    45    46    2
    41    44    47    1
    42    13    12    2
    43   105   108    1
    44   108   109    1
    45    20    23    1
    46   111   109   ar
    47    12    11    1
    48   170   169    2
    49   109   110   ar
    50    23    24    1
    51   168   169    1
    52   168   167    1
    53   168   171    1
    54    27    28    1
    55    47    48    1
    56    10    11    1
    57    30    29    2
    58    11    14    1
    59    50    48   ar
    60    50    52   ar
    61    71    70    2
    62    48    49   ar
    63   172   171    1
    64   172   173    1
    65    70    69    1
    66    24    26   ar
    67    24    25   ar
    68    52    51   ar
    69    29    28    1
    70    49    51   ar
    71    28    31    1
    72    72    69    1
    73    72    73    1
    74    14    15    1
    75   174   175    2
    76   174   173    1
    77   177   175    1
    78    31    32    1
    79   175   176    1
    80    34    33   ar
    81    69    68    1
    82    15    16    1
    83    32    33    1
    84    75    73   ar
    85    73    74   ar
    86    68    66   am
    87    33    35   ar
    88   137   136    2
    89    16    18   ar
    90    16    17   ar
    91   151   150    2
    92    64    65    1
    93    66    67    2
    94    66    65    1
    95   146   144   ar
    96   146   147   ar
    97   144   141   ar
    98   136   135    1
    99   147   145   ar
   100   150   160   am
   101   150   149    1
   102   148   149    1
   103   166   160    1
   104   166   165    1
   105   135   138    1
   106   135   134    1
   107   160   161    1
   108   141   139   ar
   109   141   143   ar
   110   149   152    1
   111   152   153    1
   112   138   139    1
   113     9     7   am
   114   165   164    1
   115   145   143   ar
   116   139   140   ar
   117   143   142   ar
   118   155   153   ar
   119   155   157   ar
   120   163   162    2
   121   153   154   ar
   122    63    61    1
   123   161   164    1
   124   161   162    1
   125     7     8    2
   126     7     6    1
   127     1     2    1
   128    55    56    2
   129    55    54    1
   130    61    62    1
   131    61    60    2
   132   157   158   ar
   133   140   142   ar
   134     6     5    1
   135   154   156   ar
   136   120   121   ar
   137   120   118   ar
   138    60    59    1
   139    54    57    1
   140    54    53    1
   141     2     5    1
   142     2     3    1
   143   123   121   ar
   144   123   125   ar
   145    57    58    1
   146   121   119   ar
   147   158   156   ar
   148   158   159    1
   149    59    58    1
   150   118   117   ar
   151   125   124   ar
   152     3     4    2
   153   119   117   ar
   154   119   122   ar
   155   117   116    1
   156   124   122   ar
   157   112   113    1
   158   133   131   ar
   159   115   114    2
   160   116   113    1
   161   113   114    1
   162   131   130    1
   163   131   132   ar
   164   130   127    1
   165   127   126    1
   166   127   128    1
   167   128   129    2
