@<TRIPOS>MOLECULE
tmp/1z44B00.pdb
 209 200 0 0 0
SMALL
GASTEIGER

@<TRIPOS>ATOM
      1  N          0.5030   24.9560   24.8950 N.3    20  SER20      -0.1203
      2  CA        -0.4640   23.9630   24.4480 C.3    20  SER20       0.2005
      3  C         -1.1230   24.4240   23.1450 C.2    20  SER20       0.2460
      4  O         -1.4050   25.6090   22.9740 O.2    20  SER20      -0.2732
      5  CB        -1.5130   23.7700   25.5480 C.3    20  SER20       0.2103
      6  OG        -2.2760   22.5960   25.3470 O.3    20  SER20      -0.2182
      7  N         -1.3700   23.4960   22.2070 N.am   21  PRO21      -0.2728
      8  CA        -2.0020   23.9030   20.9430 C.3    21  PRO21       0.1401
      9  C         -3.3740   24.5420   21.1700 C.2    21  PRO21       0.2269
     10  O         -4.1940   24.0020   21.9060 O.2    21  PRO21      -0.2865
     11  CB        -2.0850   22.5920   20.1600 C.3    21  PRO21       0.0296
     12  CG        -2.1780   21.5460   21.2410 C.3    21  PRO21       0.0237
     13  CD        -1.1700   22.0370   22.2560 C.3    21  PRO21       0.0939
     14  N         -6.4470   26.5550   18.8520 N.3    22  CYS22      -0.1235
     15  CA        -7.0230   27.0820   17.6150 C.3    22  CYS22       0.1677
     16  C         -7.3200   28.5690   17.7360 C.2    22  CYS22       0.2270
     17  O         -7.8540   29.0280   18.7510 O.2    22  CYS22      -0.2867
     18  CB        -8.3210   26.3510   17.2710 C.3    22  CYS22       0.0956
     19  SG        -8.1000   24.7440   16.4900 S.3    22  CYS22      -0.0801
     20  N         -8.7830   30.2400   14.8680 N.3    23  TYR23      -0.1241
     21  CA        -9.8460   30.5110   13.9010 C.3    23  TYR23       0.1605
     22  C         -9.6010   31.8140   13.1510 C.2    23  TYR23       0.2264
     23  O        -10.5100   32.6370   13.0010 O.2    23  TYR23      -0.2867
     24  CB       -11.1940   30.5650   14.6290 C.3    23  TYR23       0.0534
     25  CG       -11.3810   29.4070   15.5840 C.ar   23  TYR23      -0.0201
     26  CD1      -11.0780   29.5320   16.9420 C.ar   23  TYR23      -0.0009
     27  CD2      -11.7740   28.1550   15.1120 C.ar   23  TYR23      -0.0009
     28  CE1      -11.1600   28.4280   17.8010 C.ar   23  TYR23       0.0417
     29  CE2      -11.8550   27.0560   15.9550 C.ar   23  TYR23       0.0417
     30  CZ       -11.5460   27.1940   17.2940 C.ar   23  TYR23       0.1957
     31  OH       -11.6140   26.0830   18.1020 O.3    23  TYR23      -0.2866
     32  N         -1.4900   25.2230   16.7410 N.3    53  GLU53      -0.1231
     33  CA        -2.8710   24.7520   16.7790 C.3    53  GLU53       0.1699
     34  C         -3.1960   23.6450   15.7760 C.2    53  GLU53       0.2592
     35  O         -2.5070   23.4740   14.7670 O.2    53  GLU53      -0.2718
     36  CB        -3.7940   25.9400   16.5070 C.3    53  GLU53       0.0402
     37  CG        -3.6660   26.4680   15.0740 C.3    53  GLU53       0.1161
     38  CD        -4.2190   27.8700   14.9080 C.2    53  GLU53       0.3649
     39  OE1       -3.4800   28.8420   15.1750 O.co2  53  GLU53      -0.2457
     40  OE2       -5.3970   27.9980   14.5200 O.co2  53  GLU53      -0.2457
     41  N         -4.2760   22.9200   16.0560 N.am   54  ALA54      -0.1980
     42  CA        -4.7470   21.8370   15.1930 C.3    54  ALA54       0.1597
     43  C         -4.7400   22.2590   13.7200 C.2    54  ALA54       0.2287
     44  O         -5.4410   23.1990   13.3310 O.2    54  ALA54      -0.2864
     45  CB        -6.1610   21.4280   15.6140 C.3    54  ALA54       0.0319
     46  N        -11.9620   21.7950   11.6740 N.3    63  ILE63      -0.1245
     47  CA       -13.0220   21.9520   12.6640 C.3    63  ILE63       0.1561
     48  C        -13.9410   23.0320   12.0880 C.2    63  ILE63       0.2260
     49  O        -15.1620   22.8900   12.0880 O.2    63  ILE63      -0.2867
     50  CB       -12.4630   22.4160   14.0290 C.3    63  ILE63       0.0252
     51  CG1      -11.4860   21.3690   14.5700 C.3    63  ILE63       0.0019
     52  CG2      -13.6040   22.6270   15.0140 C.3    63  ILE63       0.0019
     53  CD1      -10.7360   21.8110   15.8170 C.3    63  ILE63       0.0001
     54  N          0.4520   20.3810   15.4850 N.3    96  GLN96      -0.1245
     55  CA        -0.4980   19.3260   15.7970 C.3    96  GLN96       0.1566
     56  C         -1.2480   18.9400   14.5170 C.2    96  GLN96       0.2260
     57  O         -1.9990   19.7480   13.9690 O.2    96  GLN96      -0.2867
     58  CB        -1.4840   19.8160   16.8620 C.3    96  GLN96       0.0367
     59  CG        -2.4280   18.7500   17.3650 C.3    96  GLN96       0.0905
     60  CD        -3.4190   19.2970   18.3730 C.2    96  GLN96       0.2608
     61  OE1       -4.1930   20.2010   18.0640 O.2    96  GLN96      -0.2717
     62  NE2       -3.3980   18.7510   19.5870 N.am   96  GLN96      -0.0878
     63  N         -2.9970   14.4730   16.7940 N.3   157  HIS157     -0.1241
     64  CA        -4.1690   14.8070   17.6010 C.3   157  HIS157      0.1621
     65  C         -5.1190   13.6190   17.6960 C.2   157  HIS157      0.2264
     66  O         -5.9560   13.4100   16.8150 O.2   157  HIS157     -0.2867
     67  CB        -4.9140   16.0010   16.9980 C.3   157  HIS157      0.0745
     68  CG        -5.8230   16.6980   17.9640 C.ar  157  HIS157      0.0817
     69  ND1       -6.2480   16.1210   19.1420 N.ar  157  HIS157     -0.2268
     70  CD2       -6.3810   17.9320   17.9260 C.ar  157  HIS157      0.1154
     71  CE1       -7.0270   16.9710   19.7880 C.ar  157  HIS157      0.1986
     72  NE2       -7.1240   18.0770   19.0720 N.ar  157  HIS157     -0.2212
     73  N         -9.8600   14.8320   22.2160 N.3   160  HIS160     -0.1241
     74  CA       -11.0140   15.7180   22.1460 C.3   160  HIS160      0.1621
     75  C        -12.1570   15.3500   21.2050 C.2   160  HIS160      0.2264
     76  O        -12.8080   16.2220   20.6240 O.2   160  HIS160     -0.2867
     77  CB       -10.5000   17.1350   21.8710 C.3   160  HIS160      0.0745
     78  CG        -9.5270   17.6220   22.9060 C.ar  160  HIS160      0.0817
     79  ND1       -8.6500   18.6590   22.6770 N.ar  160  HIS160     -0.2268
     80  CD2       -9.2950   17.2070   24.1750 C.ar  160  HIS160      0.1154
     81  CE1       -7.9190   18.8630   23.7600 C.ar  160  HIS160      0.1986
     82  NE2       -8.2910   17.9950   24.6830 N.ar  160  HIS160     -0.2212
     83  N        -12.1490   13.9890   18.2560 N.3   162  TYR162     -0.1241
     84  CA       -11.9470   14.1230   16.8190 C.3   162  TYR162      0.1605
     85  C        -11.7690   12.7550   16.1470 C.2   162  TYR162      0.2264
     86  O        -11.9720   11.7280   16.7960 O.2   162  TYR162     -0.2867
     87  CB       -10.8030   15.1130   16.5660 C.3   162  TYR162      0.0534
     88  CG       -11.1850   16.5070   17.0540 C.ar  162  TYR162     -0.0201
     89  CD1      -10.3590   17.2250   17.9190 C.ar  162  TYR162     -0.0009
     90  CD2      -12.4070   17.0820   16.6890 C.ar  162  TYR162     -0.0009
     91  CE1      -10.7430   18.4750   18.4140 C.ar  162  TYR162      0.0417
     92  CE2      -12.7980   18.3290   17.1770 C.ar  162  TYR162      0.0417
     93  CZ       -11.9640   19.0190   18.0390 C.ar  162  TYR162      0.1957
     94  OH       -12.3570   20.2460   18.5310 O.3   162  TYR162     -0.2866
     95  N         -1.3680   13.3650   21.4950 N.3   208  ARG208     -0.1245
     96  CA        -2.2670   13.9030   22.5130 C.3   208  ARG208      0.1563
     97  C         -3.4910   13.0020   22.5790 C.2   208  ARG208      0.2260
     98  O         -4.0910   12.6820   21.5500 O.2   208  ARG208     -0.2867
     99  CB        -2.7110   15.3360   22.1890 C.3   208  ARG208      0.0307
    100  CG        -3.8310   15.8280   23.1100 C.3   208  ARG208      0.0489
    101  CD        -4.0890   17.3240   23.0080 C.3   208  ARG208      0.2205
    102  NE        -3.1840   18.0520   23.8890 N.pl3 208  ARG208     -0.0865
    103  CZ        -3.3980   19.2750   24.3650 C.cat 208  ARG208      0.5346
    104  NH1       -4.4930   19.9490   24.0410 N.pl3 208  ARG208      0.1354
    105  NH2       -2.5320   19.8030   25.2220 N.pl3 208  ARG208      0.1354
    106  N         -4.6500   14.8810   27.9380 N.3   241  SER241     -0.1217
    107  CA        -5.8460   15.6890   28.1270 C.3   241  SER241      0.1889
    108  C         -6.9810   14.7120   28.4600 C.2   241  SER241      0.2288
    109  O         -6.7230   13.5940   28.9060 O.2   241  SER241     -0.2866
    110  CB        -6.1600   16.4800   26.8520 C.3   241  SER241      0.2089
    111  OG        -7.2110   17.4050   27.0730 O.3   241  SER241     -0.2183
    112  N         -6.6040   18.9910   37.4390 N.3   256  TYR256     -0.1227
    113  CA        -7.5700   17.8990   37.3140 C.3   256  TYR256      0.1736
    114  C         -7.2160   16.7650   36.3490 C.2   256  TYR256      0.2595
    115  O         -7.8260   15.6990   36.4110 O.2   256  TYR256     -0.2718
    116  CB        -8.9690   18.4520   36.9830 C.3   256  TYR256      0.0548
    117  CG        -9.1850   18.9170   35.5540 C.ar  256  TYR256     -0.0200
    118  CD1      -10.0450   18.2240   34.6990 C.ar  256  TYR256     -0.0009
    119  CD2       -8.5710   20.0740   35.0730 C.ar  256  TYR256     -0.0009
    120  CE1      -10.2940   18.6780   33.3980 C.ar  256  TYR256      0.0417
    121  CE2       -8.8120   20.5340   33.7750 C.ar  256  TYR256      0.0417
    122  CZ        -9.6750   19.8340   32.9480 C.ar  256  TYR256      0.1957
    123  OH        -9.9260   20.3090   31.6770 O.3   256  TYR256     -0.2866
    124  N         -6.2390   16.9700   35.4680 N.am  257  GLN257     -0.1979
    125  CA        -5.8470   15.9130   34.5320 C.3   257  GLN257      0.1601
    126  C         -4.4540   15.3570   34.8470 C.2   257  GLN257      0.2287
    127  O         -3.9420   14.4890   34.1380 O.2   257  GLN257     -0.2864
    128  CB        -5.9090   16.4390   33.0870 C.3   257  GLN257      0.0394
    129  CG        -7.3440   16.7230   32.6200 C.3   257  GLN257      0.0908
    130  CD        -7.4490   17.4150   31.2600 C.2   257  GLN257      0.2608
    131  OE1       -8.4340   17.2330   30.5460 O.2   257  GLN257     -0.2717
    132  NE2       -6.4570   18.2290   30.9150 N.am  257  GLN257     -0.0878
    133  N         -1.4340   18.7930   31.5230 N.3   274  VAL274     -0.1231
    134  CA        -2.1480   19.9830   31.0750 C.3   274  VAL274      0.1692
    135  C         -3.4960   20.0460   31.7880 C.2   274  VAL274      0.2592
    136  O         -4.0530   19.0070   32.1470 O.2   274  VAL274     -0.2718
    137  CB        -2.3680   19.9570   29.5210 C.3   274  VAL274      0.0266
    138  CG1       -3.4090   18.9080   29.1430 C.3   274  VAL274      0.0020
    139  CG2       -2.7770   21.3300   29.0190 C.3   274  VAL274      0.0020
    140  N         -3.9950   21.2590   32.0130 N.am  275  GLY275     -0.1957
    141  CA        -5.2900   21.4110   32.6540 C.3   275  GLY275      0.1869
    142  C         -5.3290   22.2600   33.9110 C.2   275  GLY275      0.2309
    143  O         -5.0620   21.7760   35.0140 O.2   275  GLY275     -0.2863
    144  N         -3.3540   24.5770   34.9890 N.3   276  ILE276     -0.1231
    145  CA        -2.0640   24.7820   35.6420 C.3   276  ILE276      0.1692
    146  C         -1.7820   26.2450   35.3090 C.2   276  ILE276      0.2592
    147  O         -1.6180   26.6000   34.1360 O.2   276  ILE276     -0.2718
    148  CB        -0.9640   23.8820   35.0530 C.3   276  ILE276      0.0266
    149  CG1       -1.3400   22.4090   35.2460 C.3   276  ILE276      0.0019
    150  CG2        0.3700   24.1910   35.7340 C.3   276  ILE276      0.0020
    151  CD1       -0.4010   21.4300   34.5530 C.3   276  ILE276      0.0001
    152  N         -1.7320   27.0930   36.3340 N.am  277  THR277     -0.1953
    153  CA        -1.5560   28.5230   36.1220 C.3   277  THR277      0.1897
    154  C         -0.4260   29.2210   36.8730 C.2   277  THR277      0.2313
    155  O         -0.3170   30.4480   36.8210 O.2   277  THR277     -0.2863
    156  CB        -2.8640   29.2640   36.4520 C.3   277  THR277      0.1794
    157  OG1       -3.2000   29.0450   37.8290 O.3   277  THR277     -0.2208
    158  CG2       -4.0040   28.7600   35.5770 C.3   277  THR277      0.0378
    159  N          2.3300   21.6020   30.0740 N.3   294  PHE294     -0.1227
    160  CA         1.6120   22.2820   28.9960 C.3   294  PHE294      0.1736
    161  C          0.7250   23.3700   29.5960 C.2   294  PHE294      0.2595
    162  O         -0.0520   23.1180   30.5240 O.2   294  PHE294     -0.2718
    163  CB         0.7380   21.2930   28.2070 C.3   294  PHE294      0.0547
    164  CG         1.4980   20.4410   27.2180 C.ar  294  PHE294     -0.0202
    165  CD1        2.5240   19.5950   27.6350 C.ar  294  PHE294     -0.0042
    166  CD2        1.1510   20.4550   25.8670 C.ar  294  PHE294     -0.0042
    167  CE1        3.1930   18.7740   26.7200 C.ar  294  PHE294     -0.0003
    168  CE2        1.8130   19.6390   24.9480 C.ar  294  PHE294     -0.0003
    169  CZ         2.8350   18.7960   25.3750 C.ar  294  PHE294     -0.0000
    170  N          0.8470   24.5780   29.0570 N.am  295  ILE295     -0.1966
    171  CA         0.0840   25.7280   29.5230 C.3   295  ILE295      0.1727
    172  C         -0.7500   26.2740   28.3740 C.2   295  ILE295      0.2617
    173  O         -0.2200   26.5660   27.2930 O.2   295  ILE295     -0.2715
    174  CB         1.0270   26.8480   30.0270 C.3   295  ILE295      0.0290
    175  CG1        1.9360   26.3190   31.1430 C.3   295  ILE295      0.0022
    176  CG2        0.2110   28.0400   30.5100 C.3   295  ILE295      0.0023
    177  CD1        1.2110   25.9250   32.4210 C.3   295  ILE295      0.0001
    178  N         -2.0520   26.4050   28.6110 N.am  296  GLY296     -0.1940
    179  CA        -2.9460   26.9200   27.5930 C.3   296  GLY296      0.2014
    180  C         -3.4480   28.3190   27.9000 C.2   296  GLY296      0.2639
    181  O         -2.8030   29.3100   27.5680 O.2   296  GLY296     -0.2714
    182  N         -4.5940   28.4040   28.5650 N.am  297  ARG297     -0.1963
    183  CA        -5.1890   29.6960   28.8710 C.3   297  ARG297      0.1729
    184  C         -4.3270   30.6970   29.6410 C.2   297  ARG297      0.2616
    185  O         -4.4450   31.9010   29.4070 O.2   297  ARG297     -0.2715
    186  CB        -6.5410   29.4880   29.5620 C.3   297  ARG297      0.0348
    187  CG        -7.6160   28.9960   28.5890 C.3   297  ARG297      0.0492
    188  CD        -8.8410   28.4430   29.2940 C.3   297  ARG297      0.2205
    189  NE        -8.5440   27.1860   29.9720 N.pl3 297  ARG297     -0.0865
    190  CZ        -9.4450   26.4440   30.6080 C.cat 297  ARG297      0.5346
    191  NH1      -10.7130   26.8320   30.6600 N.pl3 297  ARG297      0.1354
    192  NH2       -9.0740   25.3090   31.1860 N.pl3 297  ARG297      0.1354
    193  N         -3.4540   30.2430   30.5380 N.am  298  GLU298     -0.1977
    194  CA        -2.6310   31.2180   31.2550 C.3   298  GLU298      0.1602
    195  C         -1.6930   31.9410   30.2810 C.2   298  GLU298      0.2287
    196  O         -1.3100   33.0820   30.5280 O.2   298  GLU298     -0.2864
    197  CB        -1.8340   30.5550   32.3890 C.3   298  GLU298      0.0415
    198  CG        -1.1340   31.5390   33.3530 C.3   298  GLU298      0.1163
    199  CD        -2.0880   32.4960   34.0740 C.2   298  GLU298      0.3649
    200  OE1       -3.2430   32.1120   34.3580 O.co2 298  GLU298     -0.2457
    201  OE2       -1.6740   33.6400   34.3790 O.co2 298  GLU298     -0.2457
    202  N         -2.5880   32.8520   27.3800 N.3   300  LEU300     -0.1245
    203  CA        -3.4230   33.7920   26.6350 C.3   300  LEU300      0.1561
    204  C         -3.5660   35.0460   27.5030 C.2   300  LEU300      0.2260
    205  O         -3.7000   36.1540   26.9870 O.2   300  LEU300     -0.2867
    206  CB        -4.8070   33.2060   26.3450 C.3   300  LEU300      0.0270
    207  CG        -4.8680   31.9940   25.4120 C.3   300  LEU300      0.0019
    208  CD1       -6.3290   31.6990   25.1050 C.3   300  LEU300      0.0001
    209  CD2       -4.1050   32.2610   24.1140 C.3   300  LEU300      0.0001
@<TRIPOS>BOND
     1    46    47    1
     2    48    49    2
     3    48    47    1
     4    47    50    1
     5    23    22    2
     6    22    21    1
     7    44    43    2
     8    43    42    1
     9    21    24    1
    10    21    20    1
    11    57    56    2
    12    50    51    1
    13    50    52    1
    14    56    55    1
    15    40    38   ar
    16    51    53    1
    17    24    25    1
    18    35    34    2
    19    38    37    1
    20    38    39   ar
    21    37    36    1
    22    27    25   ar
    23    27    29   ar
    24    42    45    1
    25    42    41    1
    26    54    55    1
    27    25    26   ar
    28    34    41   am
    29    34    33    1
    30    55    58    1
    31    29    30   ar
    32    85    86    2
    33    85    84    1
    34    19    18    1
    35    36    33    1
    36    87    84    1
    37    87    88    1
    38    90    88   ar
    39    90    92   ar
    40    32    33    1
    41    63    64    1
    42    66    65    2
    43    84    83    1
    44    58    59    1
    45    26    28   ar
    46    67    64    1
    47    67    68    1
    48    88    89   ar
    49    92    93   ar
    50    18    15    1
    51    30    28   ar
    52    30    31    1
    53    59    60    1
    54    64    65    1
    55    15    16    1
    56    15    14    1
    57    16    17    2
    58    89    91   ar
    59    70    68   ar
    60    70    72   ar
    61    68    69   ar
    62    93    91   ar
    63    93    94    1
    64    61    60    2
    65    60    62   am
    66    72    71   ar
    67    69    71   ar
    68    11     8    1
    69    11    12    1
    70    76    75    2
    71     8     9    1
    72     8     7    1
    73     9    10    2
    74    75    74    1
    75    12    13    1
    76    95    96    1
    77    98    97    2
    78    77    74    1
    79    77    78    1
    80    74    73    1
    81    99    96    1
    82    99   100    1
    83     7    13    1
    84     7     3   am
    85    96    97    1
    86    79    78   ar
    87    79    81   ar
    88    78    80   ar
    89     4     3    2
    90   101   100    1
    91   101   102    1
    92     3     2    1
    93    81    82   ar
    94   102   103    2
    95   104   103    1
    96   209   207    1
    97    80    82   ar
    98   103   105    1
    99     2     1    1
   100     2     5    1
   101   168   169   ar
   102   168   166   ar
   103   208   207    1
   104     6     5    1
   105   169   167   ar
   106   207   206    1
   107   166   164   ar
   108   206   203    1
   109   203   202    1
   110   203   204    1
   111   167   165   ar
   112   110   111    1
   113   110   107    1
   114   205   204    2
   115   164   165   ar
   116   164   163    1
   117   173   172    2
   118   181   180    2
   119   179   180    1
   120   179   178    1
   121   180   182   am
   122   106   107    1
   123   107   108    1
   124   163   160    1
   125   172   178   am
   126   172   171    1
   127   108   109    2
   128   182   183    1
   129   187   188    1
   130   187   186    1
   131   183   186    1
   132   183   184    1
   133   160   161    1
   134   160   159    1
   135   139   137    1
   136   170   171    1
   137   170   161   am
   138   138   137    1
   139   188   189    1
   140   185   184    2
   141   137   134    1
   142   171   174    1
   143   161   162    2
   144   184   193   am
   145   189   190    2
   146   174   176    1
   147   174   175    1
   148   195   196    2
   149   195   194    1
   150   193   194    1
   151   131   130    2
   152   190   191    1
   153   190   192    1
   154   132   130   am
   155   134   133    1
   156   134   135    1
   157   175   177    1
   158   194   197    1
   159   130   129    1
   160   123   122    1
   161   135   140   am
   162   135   136    2
   163   140   141    1
   164   197   198    1
   165   129   128    1
   166   141   142    1
   167   122   120   ar
   168   122   121   ar
   169   128   125    1
   170   198   199    1
   171   120   118   ar
   172   121   119   ar
   173   142   143    2
   174   199   200   ar
   175   199   201   ar
   176   147   146    2
   177   127   126    2
   178   125   126    1
   179   125   124    1
   180   151   149    1
   181   118   117   ar
   182   144   145    1
   183   148   149    1
   184   148   145    1
   185   148   150    1
   186   119   117   ar
   187   146   145    1
   188   146   152   am
   189   124   114   am
   190   117   116    1
   191   158   156    1
   192   153   152    1
   193   153   156    1
   194   153   154    1
   195   114   115    2
   196   114   113    1
   197   156   157    1
   198   155   154    2
   199   116   113    1
   200   113   112    1
