@<TRIPOS>MOLECULE
tmp/1z44B01.pdb
 90 85 0 0 0
SMALL
GASTEIGER

@<TRIPOS>ATOM
      1  N         -1.3700   23.4960   22.2070 N.3    21  PRO21      -0.2116
      2  CA        -2.0020   23.9030   20.9430 C.3    21  PRO21       0.1372
      3  C         -3.3740   24.5420   21.1700 C.2    21  PRO21       0.2244
      4  O         -4.1940   24.0020   21.9060 O.2    21  PRO21      -0.2868
      5  CB        -2.0850   22.5920   20.1600 C.3    21  PRO21       0.0268
      6  CG        -2.1780   21.5460   21.2410 C.3    21  PRO21       0.0207
      7  CD        -1.1700   22.0370   22.2560 C.3    21  PRO21       0.0892
      8  N         -6.4470   26.5550   18.8520 N.3    22  CYS22      -0.1235
      9  CA        -7.0230   27.0820   17.6150 C.3    22  CYS22       0.1677
     10  C         -7.3200   28.5690   17.7360 C.2    22  CYS22       0.2270
     11  O         -7.8540   29.0280   18.7510 O.2    22  CYS22      -0.2867
     12  CB        -8.3210   26.3510   17.2710 C.3    22  CYS22       0.0956
     13  SG        -8.1000   24.7440   16.4900 S.3    22  CYS22      -0.0801
     14  N         -8.7830   30.2400   14.8680 N.3    23  TYR23      -0.1241
     15  CA        -9.8460   30.5110   13.9010 C.3    23  TYR23       0.1605
     16  C         -9.6010   31.8140   13.1510 C.2    23  TYR23       0.2264
     17  O        -10.5100   32.6370   13.0010 O.2    23  TYR23      -0.2867
     18  CB       -11.1940   30.5650   14.6290 C.3    23  TYR23       0.0534
     19  CG       -11.3810   29.4070   15.5840 C.ar   23  TYR23      -0.0201
     20  CD1      -11.0780   29.5320   16.9420 C.ar   23  TYR23      -0.0009
     21  CD2      -11.7740   28.1550   15.1120 C.ar   23  TYR23      -0.0009
     22  CE1      -11.1600   28.4280   17.8010 C.ar   23  TYR23       0.0417
     23  CE2      -11.8550   27.0560   15.9550 C.ar   23  TYR23       0.0417
     24  CZ       -11.5460   27.1940   17.2940 C.ar   23  TYR23       0.1957
     25  OH       -11.6140   26.0830   18.1020 O.3    23  TYR23      -0.2866
     26  N         -4.2760   22.9200   16.0560 N.3    54  ALA54      -0.1245
     27  CA        -4.7470   21.8370   15.1930 C.3    54  ALA54       0.1562
     28  C         -4.7400   22.2590   13.7200 C.2    54  ALA54       0.2260
     29  O         -5.4410   23.1990   13.3310 O.2    54  ALA54      -0.2867
     30  CB        -6.1610   21.4280   15.6140 C.3    54  ALA54       0.0290
     31  N        -11.9620   21.7950   11.6740 N.3    63  ILE63      -0.1245
     32  CA       -13.0220   21.9520   12.6640 C.3    63  ILE63       0.1561
     33  C        -13.9410   23.0320   12.0880 C.2    63  ILE63       0.2260
     34  O        -15.1620   22.8900   12.0880 O.2    63  ILE63      -0.2867
     35  CB       -12.4630   22.4160   14.0290 C.3    63  ILE63       0.0252
     36  CG1      -11.4860   21.3690   14.5700 C.3    63  ILE63       0.0019
     37  CG2      -13.6040   22.6270   15.0140 C.3    63  ILE63       0.0019
     38  CD1      -10.7360   21.8110   15.8170 C.3    63  ILE63       0.0001
     39  N          0.4520   20.3810   15.4850 N.3    96  GLN96      -0.1245
     40  CA        -0.4980   19.3260   15.7970 C.3    96  GLN96       0.1566
     41  C         -1.2480   18.9400   14.5170 C.2    96  GLN96       0.2260
     42  O         -1.9990   19.7480   13.9690 O.2    96  GLN96      -0.2867
     43  CB        -1.4840   19.8160   16.8620 C.3    96  GLN96       0.0367
     44  CG        -2.4280   18.7500   17.3650 C.3    96  GLN96       0.0905
     45  CD        -3.4190   19.2970   18.3730 C.2    96  GLN96       0.2608
     46  OE1       -4.1930   20.2010   18.0640 O.2    96  GLN96      -0.2717
     47  NE2       -3.3980   18.7510   19.5870 N.am   96  GLN96      -0.0878
     48  N         -2.9970   14.4730   16.7940 N.3   157  HIS157     -0.1241
     49  CA        -4.1690   14.8070   17.6010 C.3   157  HIS157      0.1621
     50  C         -5.1190   13.6190   17.6960 C.2   157  HIS157      0.2264
     51  O         -5.9560   13.4100   16.8150 O.2   157  HIS157     -0.2867
     52  CB        -4.9140   16.0010   16.9980 C.3   157  HIS157      0.0745
     53  CG        -5.8230   16.6980   17.9640 C.ar  157  HIS157      0.0817
     54  ND1       -6.2480   16.1210   19.1420 N.ar  157  HIS157     -0.2268
     55  CD2       -6.3810   17.9320   17.9260 C.ar  157  HIS157      0.1154
     56  CE1       -7.0270   16.9710   19.7880 C.ar  157  HIS157      0.1986
     57  NE2       -7.1240   18.0770   19.0720 N.ar  157  HIS157     -0.2212
     58  N         -9.8600   14.8320   22.2160 N.3   160  HIS160     -0.1241
     59  CA       -11.0140   15.7180   22.1460 C.3   160  HIS160      0.1621
     60  C        -12.1570   15.3500   21.2050 C.2   160  HIS160      0.2264
     61  O        -12.8080   16.2220   20.6240 O.2   160  HIS160     -0.2867
     62  CB       -10.5000   17.1350   21.8710 C.3   160  HIS160      0.0745
     63  CG        -9.5270   17.6220   22.9060 C.ar  160  HIS160      0.0817
     64  ND1       -8.6500   18.6590   22.6770 N.ar  160  HIS160     -0.2268
     65  CD2       -9.2950   17.2070   24.1750 C.ar  160  HIS160      0.1154
     66  CE1       -7.9190   18.8630   23.7600 C.ar  160  HIS160      0.1986
     67  NE2       -8.2910   17.9950   24.6830 N.ar  160  HIS160     -0.2212
     68  N        -12.1490   13.9890   18.2560 N.3   162  TYR162     -0.1241
     69  CA       -11.9470   14.1230   16.8190 C.3   162  TYR162      0.1605
     70  C        -11.7690   12.7550   16.1470 C.2   162  TYR162      0.2264
     71  O        -11.9720   11.7280   16.7960 O.2   162  TYR162     -0.2867
     72  CB       -10.8030   15.1130   16.5660 C.3   162  TYR162      0.0534
     73  CG       -11.1850   16.5070   17.0540 C.ar  162  TYR162     -0.0201
     74  CD1      -10.3590   17.2250   17.9190 C.ar  162  TYR162     -0.0009
     75  CD2      -12.4070   17.0820   16.6890 C.ar  162  TYR162     -0.0009
     76  CE1      -10.7430   18.4750   18.4140 C.ar  162  TYR162      0.0417
     77  CE2      -12.7980   18.3290   17.1770 C.ar  162  TYR162      0.0417
     78  CZ       -11.9640   19.0190   18.0390 C.ar  162  TYR162      0.1957
     79  OH       -12.3570   20.2460   18.5310 O.3   162  TYR162     -0.2866
     80  N         -1.3680   13.3650   21.4950 N.3   208  ARG208     -0.1245
     81  CA        -2.2670   13.9030   22.5130 C.3   208  ARG208      0.1563
     82  C         -3.4910   13.0020   22.5790 C.2   208  ARG208      0.2260
     83  O         -4.0910   12.6820   21.5500 O.2   208  ARG208     -0.2867
     84  CB        -2.7110   15.3360   22.1890 C.3   208  ARG208      0.0307
     85  CG        -3.8310   15.8280   23.1100 C.3   208  ARG208      0.0489
     86  CD        -4.0890   17.3240   23.0080 C.3   208  ARG208      0.2205
     87  NE        -3.1840   18.0520   23.8890 N.pl3 208  ARG208     -0.0865
     88  CZ        -3.3980   19.2750   24.3650 C.cat 208  ARG208      0.5346
     89  NH1       -4.4930   19.9490   24.0410 N.pl3 208  ARG208      0.1354
     90  NH2       -2.5320   19.8030   25.2220 N.pl3 208  ARG208      0.1354
@<TRIPOS>BOND
     1    31    32    1
     2    33    34    2
     3    33    32    1
     4    32    35    1
     5    17    16    2
     6    16    15    1
     7    29    28    2
     8    28    27    1
     9    15    18    1
    10    15    14    1
    11    42    41    2
    12    35    36    1
    13    35    37    1
    14    41    40    1
    15    36    38    1
    16    18    19    1
    17    21    19   ar
    18    21    23   ar
    19    27    30    1
    20    27    26    1
    21    39    40    1
    22    19    20   ar
    23    40    43    1
    24    23    24   ar
    25    70    71    2
    26    70    69    1
    27    13    12    1
    28    72    69    1
    29    72    73    1
    30    75    73   ar
    31    75    77   ar
    32    48    49    1
    33    51    50    2
    34    69    68    1
    35    43    44    1
    36    20    22   ar
    37    52    49    1
    38    52    53    1
    39    73    74   ar
    40    77    78   ar
    41    12     9    1
    42    24    22   ar
    43    24    25    1
    44    44    45    1
    45    49    50    1
    46     9    10    1
    47     9     8    1
    48    10    11    2
    49    74    76   ar
    50    55    53   ar
    51    55    57   ar
    52    53    54   ar
    53    78    76   ar
    54    78    79    1
    55    46    45    2
    56    45    47   am
    57    57    56   ar
    58    54    56   ar
    59     5     2    1
    60     5     6    1
    61    61    60    2
    62     2     3    1
    63     2     1    1
    64     3     4    2
    65    60    59    1
    66     6     7    1
    67    80    81    1
    68    83    82    2
    69    62    59    1
    70    62    63    1
    71    59    58    1
    72    84    81    1
    73    84    85    1
    74     1     7    1
    75    81    82    1
    76    64    63   ar
    77    64    66   ar
    78    63    65   ar
    79    86    85    1
    80    86    87    1
    81    66    67   ar
    82    87    88    2
    83    89    88    1
    84    65    67   ar
    85    88    90    1
