@<TRIPOS>MOLECULE
tmp/1z45A02.pdb
 219 216 0 0 0
SMALL
GASTEIGER

@<TRIPOS>ATOM
      1  N         29.5890   15.0410    0.0260 N.3    85  LYS85      -0.1245
      2  CA        28.1890   15.2290    0.2310 C.3    85  LYS85       0.1561
      3  C         27.4380   16.0470   -0.8400 C.2    85  LYS85       0.2260
      4  O         26.3010   16.4350   -0.5600 O.2    85  LYS85      -0.2867
      5  CB        28.1140   15.9770    1.5770 C.3    85  LYS85       0.0271
      6  CG        28.8650   17.3410    1.5600 C.3    85  LYS85       0.0035
      7  CD        28.3460   18.3720    2.5500 C.3    85  LYS85       0.0206
      8  CE        28.9370   19.7560    2.3580 C.3    85  LYS85       0.1093
      9  NZ        28.3800   20.7700    3.3140 N.3    85  LYS85      -0.1314
     10  N         25.2170   16.2630   -3.5880 N.3    87  VAL87      -0.1245
     11  CA        24.3040   15.4320   -4.3070 C.3    87  VAL87       0.1561
     12  C         24.4930   15.4850   -5.7980 C.2    87  VAL87       0.2260
     13  O         24.5520   14.4560   -6.4710 O.2    87  VAL87      -0.2867
     14  CB        22.8930   15.8560   -4.0550 C.3    87  VAL87       0.0252
     15  CG1       22.0370   14.9320   -4.8950 C.3    87  VAL87       0.0019
     16  CG2       22.4620   15.6090   -2.6360 C.3    87  VAL87       0.0019
     17  N         21.5920   11.4960    6.7380 N.3   125  SER125     -0.1202
     18  CA        20.9330   12.5750    6.0600 C.3   125  SER125      0.2020
     19  C         19.4630   12.2860    5.7130 C.2   125  SER125      0.2619
     20  O         19.0820   11.1460    5.4260 O.2   125  SER125     -0.2717
     21  CB        21.7400   12.7400    4.7690 C.3   125  SER125      0.2103
     22  OG        21.0590   13.5390    3.8160 O.3   125  SER125     -0.2182
     23  N         18.6360   13.3360    5.6920 N.am  126  ALA126     -0.1965
     24  CA        17.2520   13.1530    5.3350 C.3   126  ALA126      0.1728
     25  C         17.1410   12.6360    3.9000 C.2   126  ALA126      0.2616
     26  O         16.1070   12.2050    3.4610 O.2   126  ALA126     -0.2715
     27  CB        16.5460   14.4840    5.4040 C.3   126  ALA126      0.0334
     28  N         18.2030   12.6810    3.1200 N.am  127  THR127     -0.1951
     29  CA        18.2220   12.1780    1.7350 C.3   127  THR127      0.1897
     30  C         17.8920   10.6790    1.6860 C.2   127  THR127      0.2313
     31  O         17.4310   10.1530    0.6730 O.2   127  THR127     -0.2863
     32  CB        19.5920   12.5010    1.0950 C.3   127  THR127      0.1794
     33  OG1       19.4810   12.4930   -0.2900 O.3   127  THR127     -0.2208
     34  CG2       20.7280   11.5830    1.6060 C.3   127  THR127      0.0378
     35  N         24.6230    9.8810   -3.5670 N.3   153  TYR153     -0.1241
     36  CA        24.9990   10.3360   -2.2490 C.3   153  TYR153      0.1605
     37  C         24.0780    9.6870   -1.2190 C.2   153  TYR153      0.2264
     38  O         24.5150    9.0830   -0.2090 O.2   153  TYR153     -0.2867
     39  CB        25.0110   11.8730   -2.2400 C.3   153  TYR153      0.0534
     40  CG        24.9520   12.4220   -0.8400 C.ar  153  TYR153     -0.0201
     41  CD1       23.8020   13.0450   -0.3400 C.ar  153  TYR153     -0.0009
     42  CD2       26.0630   12.2820   -0.0030 C.ar  153  TYR153     -0.0009
     43  CE1       23.7430   13.5870    0.9470 C.ar  153  TYR153      0.0417
     44  CE2       26.0230   12.8180    1.2920 C.ar  153  TYR153      0.0417
     45  CZ        24.8740   13.4610    1.7650 C.ar  153  TYR153      0.1957
     46  OH        24.8670   13.9870    3.0330 O.3   153  TYR153     -0.2866
     47  N         20.3780   14.3660    9.5590 N.3   182  TYR182     -0.1227
     48  CA        20.2820   15.7850    9.5160 C.3   182  TYR182      0.1736
     49  C         19.4110   16.2080    8.3750 C.2   182  TYR182      0.2595
     50  O         19.3860   15.6040    7.3150 O.2   182  TYR182     -0.2718
     51  CB        21.6390   16.4760    9.2440 C.3   182  TYR182      0.0548
     52  CG        22.8180   15.9380   10.0260 C.ar  182  TYR182     -0.0200
     53  CD1       22.6980   15.2910   11.2550 C.ar  182  TYR182     -0.0009
     54  CD2       24.1040   16.1220    9.5140 C.ar  182  TYR182     -0.0009
     55  CE1       23.8250   14.8410   11.9600 C.ar  182  TYR182      0.0417
     56  CE2       25.2470   15.6830   10.1850 C.ar  182  TYR182      0.0417
     57  CZ        25.1000   15.0320   11.4060 C.ar  182  TYR182      0.1957
     58  OH        26.2420   14.5800   12.0250 O.3   182  TYR182     -0.2866
     59  N         18.7550   17.3230    8.5870 N.am  183  PHE183     -0.1962
     60  CA        17.9400   17.9380    7.5480 C.3   183  PHE183      0.1771
     61  C         18.8130   18.9900    6.8000 C.2   183  PHE183      0.2620
     62  O         19.8340   18.6420    6.2370 O.2   183  PHE183     -0.2715
     63  CB        16.5190   18.3640    8.0350 C.3   183  PHE183      0.0574
     64  CG        15.6480   17.1030    8.1290 C.ar  183  PHE183     -0.0200
     65  CD1       15.9790   16.1080    9.0520 C.ar  183  PHE183     -0.0042
     66  CD2       14.5710   16.8860    7.2520 C.ar  183  PHE183     -0.0042
     67  CE1       15.2410   14.9230    9.1440 C.ar  183  PHE183     -0.0003
     68  CE2       13.8160   15.7080    7.3200 C.ar  183  PHE183     -0.0003
     69  CZ        14.1660   14.7370    8.2640 C.ar  183  PHE183     -0.0000
     70  N         18.4670   20.2530    6.7910 N.am  184  ASN184     -0.1959
     71  CA        19.3030   21.2690    6.1150 C.3   184  ASN184      0.1804
     72  C         19.9740   22.2250    7.1210 C.2   184  ASN184      0.2463
     73  O         19.4070   23.2180    7.5590 O.2   184  ASN184     -0.2730
     74  CB        18.3820   22.1190    5.2250 C.3   184  ASN184      0.1195
     75  CG        18.1790   21.3660    3.9440 C.2   184  ASN184      0.2630
     76  OD1       18.0190   20.1490    3.9670 O.2   184  ASN184     -0.2716
     77  ND2       18.2370   22.0660    2.8290 N.am  184  ASN184     -0.0877
     78  N         21.2030   21.9360    7.4730 N.am  185  PRO185     -0.2727
     79  CA        21.9200   22.7250    8.4240 C.3   185  PRO185      0.1402
     80  C         22.3890   24.0080    7.7920 C.2   185  PRO185      0.2269
     81  O         22.9400   24.0490    6.6910 O.2   185  PRO185     -0.2865
     82  CB        23.1230   21.8630    8.8490 C.3   185  PRO185      0.0296
     83  CG        22.9760   20.5420    8.1220 C.3   185  PRO185      0.0237
     84  CD        21.8800   20.6760    7.1070 C.3   185  PRO185      0.0939
     85  N         29.1250   27.3350   -3.8920 N.2   202  PRO202     -0.2571
     86  CA        28.0350   26.8490   -3.0820 C.3   202  PRO202      0.2026
     87  C         26.9650   26.0320   -3.8020 C.2   202  PRO202      0.2683
     88  O         26.3170   26.4800   -4.7530 O.2   202  PRO202     -0.2709
     89  CB        27.3890   28.0550   -2.3810 C.2   202  PRO202      0.0085
     90  CG        28.1060   29.2910   -2.8860 C.2   202  PRO202      0.0180
     91  CD        29.1790   28.8150   -3.8610 C.2   202  PRO202      0.0938
     92  N         26.7680   24.8120   -3.3010 N.am  203  ASN203     -0.1953
     93  CA        25.7350   23.9700   -3.8450 C.3   203  ASN203      0.1820
     94  C         24.4830   24.3150   -3.0710 C.2   203  ASN203      0.2621
     95  O         23.3580   24.1610   -3.5480 O.2   203  ASN203     -0.2715
     96  CB        26.1070   22.5000   -3.7330 C.3   203  ASN203      0.1195
     97  CG        27.1440   22.1610   -4.8140 C.2   203  ASN203      0.2630
     98  OD1       27.0310   22.6210   -5.9690 O.2   203  ASN203     -0.2716
     99  ND2       28.1640   21.3810   -4.4720 N.am  203  ASN203     -0.0877
    100  N         24.7320   24.8510   -1.8680 N.am  204  ASN204     -0.1958
    101  CA        23.6730   25.2160   -0.9770 C.3   204  ASN204      0.1819
    102  C         23.0100   26.5940   -1.0490 C.2   204  ASN204      0.2621
    103  O         23.5780   27.6680   -1.3230 O.2   204  ASN204     -0.2715
    104  CB        23.5760   24.3140    0.2800 C.3   204  ASN204      0.1195
    105  CG        24.8500   23.4560    0.4570 C.2   204  ASN204      0.2630
    106  OD1       26.0000   23.9070    0.2230 O.2   204  ASN204     -0.2716
    107  ND2       24.6700   22.2100    0.8870 N.am  204  ASN204     -0.0877
    108  N         21.7260   26.5500   -0.8000 N.am  205  LEU205     -0.1963
    109  CA        20.9730   27.7640   -0.8350 C.3   205  LEU205      0.1728
    110  C         21.7330   28.9010   -0.1100 C.2   205  LEU205      0.2616
    111  O         22.0620   29.9790   -0.6740 O.2   205  LEU205     -0.2715
    112  CB        19.5810   27.5190   -0.2390 C.3   205  LEU205      0.0311
    113  CG        18.6610   28.6930   -0.4640 C.3   205  LEU205      0.0022
    114  CD1       18.5800   29.0690   -1.9420 C.3   205  LEU205      0.0001
    115  CD2       17.3020   28.4970    0.2130 C.3   205  LEU205      0.0001
    116  N         22.0290   28.6220    1.1610 N.am  206  LEU206     -0.1977
    117  CA        22.6820   29.5760    2.0150 C.3   206  LEU206      0.1596
    118  C         24.0390   30.1680    1.7000 C.2   206  LEU206      0.2287
    119  O         24.2370   31.3890    1.6140 O.2   206  LEU206     -0.2864
    120  CB        22.3560   29.3930    3.4870 C.3   206  LEU206      0.0297
    121  CG        20.8880   29.6930    3.5290 C.3   206  LEU206      0.0022
    122  CD1       20.0640   28.4280    3.6580 C.3   206  LEU206      0.0001
    123  CD2       20.5150   30.7950    4.5160 C.3   206  LEU206      0.0001
    124  N         25.4550   29.9690   -0.8580 N.3   208  TYR208     -0.1241
    125  CA        25.4470   30.5770   -2.1470 C.3   208  TYR208      0.1605
    126  C         24.8730   32.0060   -2.0340 C.2   208  TYR208      0.2264
    127  O         25.4050   32.9970   -2.5450 O.2   208  TYR208     -0.2867
    128  CB        24.8910   29.6320   -3.2300 C.3   208  TYR208      0.0534
    129  CG        25.0480   30.2550   -4.5930 C.ar  208  TYR208     -0.0201
    130  CD1       24.2570   31.3620   -4.8960 C.ar  208  TYR208     -0.0009
    131  CD2       25.9600   29.8140   -5.5540 C.ar  208  TYR208     -0.0009
    132  CE1       24.3540   32.0270   -6.1190 C.ar  208  TYR208      0.0417
    133  CE2       26.0690   30.4640   -6.7900 C.ar  208  TYR208      0.0417
    134  CZ        25.2640   31.5730   -7.0740 C.ar  208  TYR208      0.1957
    135  OH        25.3700   32.2160   -8.2910 O.3   208  TYR208     -0.2866
    136  N         22.2150   34.9550   -7.6750 N.3   220  LEU220     -0.1231
    137  CA        21.7300   33.6490   -7.2010 C.3   220  LEU220      0.1693
    138  C         20.4800   33.2650   -7.9710 C.2   220  LEU220      0.2592
    139  O         19.5800   34.0860   -8.3190 O.2   220  LEU220     -0.2718
    140  CB        21.4080   33.4520   -5.6970 C.3   220  LEU220      0.0284
    141  CG        20.3320   32.3670   -5.4540 C.3   220  LEU220      0.0019
    142  CD1       20.9050   31.0370   -4.9660 C.3   220  LEU220      0.0001
    143  CD2       19.1820   32.8450   -4.5560 C.3   220  LEU220      0.0001
    144  N         20.4260   31.9690   -8.2200 N.am  221  TYR221     -0.1962
    145  CA        19.2880   31.5040   -8.9410 C.3   221  TYR221      0.1771
    146  C         18.3410   30.6490   -8.1260 C.2   221  TYR221      0.2619
    147  O         18.7370   29.5840   -7.6480 O.2   221  TYR221     -0.2715
    148  CB        19.7360   30.7390  -10.1880 C.3   221  TYR221      0.0574
    149  CG        20.5210   31.6060  -11.1440 C.ar  221  TYR221     -0.0198
    150  CD1       21.9170   31.5530  -11.1420 C.ar  221  TYR221     -0.0009
    151  CD2       19.8810   32.4520  -12.0560 C.ar  221  TYR221     -0.0009
    152  CE1       22.6670   32.3390  -12.0200 C.ar  221  TYR221      0.0417
    153  CE2       20.6210   33.2420  -12.9410 C.ar  221  TYR221      0.0417
    154  CZ        22.0210   33.1890  -12.9230 C.ar  221  TYR221      0.1957
    155  OH        22.7690   33.9790  -13.7720 O.3   221  TYR221     -0.2866
    156  N         17.0940   31.1350   -8.0110 N.am  222  ILE222     -0.1963
    157  CA        15.9830   30.4600   -7.3420 C.3   222  ILE222      0.1727
    158  C         15.5570   29.3650   -8.3370 C.2   222  ILE222      0.2616
    159  O         15.1180   29.6560   -9.4750 O.2   222  ILE222     -0.2715
    160  CB        14.8220   31.4260   -7.0090 C.3   222  ILE222      0.0290
    161  CG1       15.2300   32.5000   -6.0000 C.3   222  ILE222      0.0022
    162  CG2       13.5850   30.6800   -6.4800 C.3   222  ILE222      0.0023
    163  CD1       14.0640   32.9560   -5.1120 C.3   222  ILE222      0.0001
    164  N         15.7440   28.1020   -7.9320 N.am  223  PHE223     -0.1974
    165  CA        15.4400   26.9350   -8.7790 C.3   223  PHE223      0.1639
    166  C         14.0080   26.3600   -8.6910 C.2   223  PHE223      0.2290
    167  O         13.3650   26.3020   -7.6390 O.2   223  PHE223     -0.2864
    168  CB        16.5410   25.8510   -8.7120 C.3   223  PHE223      0.0560
    169  CG        17.8700   26.3330   -9.2470 C.ar  223  PHE223     -0.0200
    170  CD1       18.8240   26.8560   -8.3730 C.ar  223  PHE223     -0.0042
    171  CD2       18.2000   26.2410  -10.6070 C.ar  223  PHE223     -0.0042
    172  CE1       20.0620   27.2980   -8.8530 C.ar  223  PHE223     -0.0003
    173  CE2       19.4380   26.6590  -11.1110 C.ar  223  PHE223     -0.0003
    174  CZ        20.3690   27.1980  -10.2160 C.ar  223  PHE223     -0.0000
    175  N         10.5130   24.5300   -3.7360 N.3   228  PRO228     -0.2116
    176  CA        10.8200   23.2410   -3.0790 C.3   228  PRO228      0.1372
    177  C         11.0520   23.4470   -1.5550 C.2   228  PRO228      0.2244
    178  O         11.6530   24.4420   -1.1370 O.2   228  PRO228     -0.2868
    179  CB        12.0720   22.7060   -3.7870 C.3   228  PRO228      0.0268
    180  CG        12.2960   23.5780   -5.0280 C.3   228  PRO228      0.0207
    181  CD        11.3970   24.8100   -4.9000 C.3   228  PRO228      0.0892
    182  N         12.2150   22.5690    2.6030 N.3   230  ARG230     -0.1245
    183  CA        13.1950   22.0350    3.5360 C.3   230  ARG230      0.1563
    184  C         13.0450   22.5340    4.9610 C.2   230  ARG230      0.2260
    185  O         12.3280   23.5030    5.2260 O.2   230  ARG230     -0.2867
    186  CB        14.6370   22.1670    3.1250 C.3   230  ARG230      0.0307
    187  CG        14.8270   22.1630    1.6410 C.3   230  ARG230      0.0489
    188  CD        14.8060   20.7750    1.0390 C.3   230  ARG230      0.2205
    189  NE        13.8330   20.8340   -0.0340 N.pl3 230  ARG230     -0.0865
    190  CZ        13.6690   19.9590   -1.0010 C.cat 230  ARG230      0.5346
    191  NH1       14.4320   18.8740   -1.1160 N.pl3 230  ARG230      0.1354
    192  NH2       12.7090   20.1870   -1.8860 N.pl3 230  ARG230      0.1354
    193  N         15.3570   23.8860    7.6860 N.3   232  TYR232     -0.1241
    194  CA        16.6250   24.5540    7.9180 C.3   232  TYR232      0.1605
    195  C         16.9360   24.6120    9.3730 C.2   232  TYR232      0.2264
    196  O         16.2660   25.3220   10.1210 O.2   232  TYR232     -0.2867
    197  CB        16.5600   25.9740    7.3360 C.3   232  TYR232      0.0534
    198  CG        16.4800   25.9070    5.8220 C.ar  232  TYR232     -0.0201
    199  CD1       17.5420   25.4310    5.0510 C.ar  232  TYR232     -0.0009
    200  CD2       15.3060   26.2870    5.1690 C.ar  232  TYR232     -0.0009
    201  CE1       17.4480   25.3510    3.6590 C.ar  232  TYR232      0.0417
    202  CE2       15.1980   26.2390    3.7760 C.ar  232  TYR232      0.0417
    203  CZ        16.2710   25.7580    3.0300 C.ar  232  TYR232      0.1957
    204  OH        16.1710   25.6770    1.6660 O.3   232  TYR232     -0.2866
    205  N         11.6900   28.2740    0.0110 N.3   272  VAL272     -0.1245
    206  CA        12.9080   28.9220   -0.4110 C.3   272  VAL272      0.1561
    207  C         12.8950   30.4450   -0.2740 C.2   272  VAL272      0.2260
    208  O         13.7730   31.0860    0.3100 O.2   272  VAL272     -0.2867
    209  CB        13.2310   28.6670   -1.8340 C.3   272  VAL272      0.0252
    210  CG1       14.2760   29.7230   -2.0890 C.3   272  VAL272      0.0019
    211  CG2       13.7400   27.2440   -1.9770 C.3   272  VAL272      0.0019
    212  N         10.7290   18.2900    2.4180 N.3   293  LEU293     -0.1245
    213  CA        11.6940   17.5620    3.2220 C.3   293  LEU293      0.1561
    214  C         11.8010   18.1810    4.6030 C.2   293  LEU293      0.2260
    215  O         12.7580   18.8520    4.9440 O.2   293  LEU293     -0.2867
    216  CB        13.0320   17.5630    2.5210 C.3   293  LEU293      0.0270
    217  CG        13.7830   16.2760    2.7520 C.3   293  LEU293      0.0019
    218  CD1       12.8680   15.1370    2.3720 C.3   293  LEU293      0.0001
    219  CD2       15.0370   16.2170    1.8850 C.3   293  LEU293      0.0001
@<TRIPOS>BOND
     1   155   154    1
     2   153   154   ar
     3   153   151   ar
     4   154   152   ar
     5   151   149   ar
     6   152   150   ar
     7   149   150   ar
     8   149   148    1
     9   173   171   ar
    10   173   174   ar
    11   171   169   ar
    12   174   172   ar
    13   148   145    1
    14   159   158    2
    15   169   168    1
    16   169   170   ar
    17   145   144    1
    18   145   146    1
    19   172   170   ar
    20   165   168    1
    21   165   166    1
    22   165   164    1
    23   166   167    2
    24   158   164   am
    25   158   157    1
    26   139   138    2
    27   135   134    1
    28   144   138   am
    29   146   156   am
    30   146   147    2
    31   156   157    1
    32   138   137    1
    33   136   137    1
    34   157   160    1
    35   137   140    1
    36   134   133   ar
    37   134   132   ar
    38   160   162    1
    39   160   161    1
    40   133   131   ar
    41    13    12    2
    42   132   130   ar
    43   161   163    1
    44    98    97    2
    45    12    11    1
    46   140   141    1
    47   131   129   ar
    48   141   142    1
    49   141   143    1
    50   180   181    1
    51   180   179    1
    52   181   175    1
    53   130   129   ar
    54    15    14    1
    55    97    99   am
    56    97    96    1
    57    88    87    2
    58   129   128    1
    59    11    14    1
    60    11    10    1
    61    14    16    1
    62    85    91    2
    63    85    86    1
    64    91    90    1
    65    93    96    1
    66    93    92    1
    67    93    94    1
    68    87    92   am
    69    87    86    1
    70   179   176    1
    71   175   176    1
    72    35    36    1
    73    95    94    2
    74   128   125    1
    75    86    89    1
    76   176   177    1
    77    94   100   am
    78    90    89    2
    79   127   126    2
    80    36    39    1
    81    36    37    1
    82    39    40    1
    83   125   126    1
    84   125   124    1
    85   210   209    1
    86   211   209    1
    87   114   113    1
    88   192   190    1
    89   100   101    1
    90   209   206    1
    91   177   178    2
    92   103   102    2
    93    37    38    2
    94   191   190    1
    95   102   101    1
    96   102   108   am
    97   190   189    2
    98   101   104    1
    99     3     4    2
   100     3     2    1
   101    40    41   ar
   102    40    42   ar
   103   109   108    1
   104   109   112    1
   105   109   110    1
   106   111   110    2
   107   113   112    1
   108   113   115    1
   109   206   207    1
   110   206   205    1
   111    41    43   ar
   112    33    32    1
   113   207   208    2
   114   110   116   am
   115   189   188    1
   116    42    44   ar
   117     1     2    1
   118   106   105    2
   119     2     5    1
   120   104   105    1
   121   105   107   am
   122    31    30    2
   123    43    45   ar
   124   188   187    1
   125    32    34    1
   126    32    29    1
   127   116   117    1
   128    44    45   ar
   129     6     5    1
   130     6     7    1
   131   119   118    2
   132   187   186    1
   133   204   203    1
   134    30    29    1
   135   118   117    1
   136    29    28    1
   137    45    46    1
   138   219   217    1
   139   117   120    1
   140     8     7    1
   141     8     9    1
   142   218   217    1
   143   212   213    1
   144   216   217    1
   145   216   213    1
   146   182   183    1
   147    77    75   am
   148   203   201   ar
   149   203   202   ar
   150    28    25   am
   151   186   183    1
   152   213   214    1
   153    26    25    2
   154   120   121    1
   155   121   122    1
   156   121   123    1
   157   183   184    1
   158   201   199   ar
   159   202   200   ar
   160    22    21    1
   161    25    24    1
   162    75    76    2
   163    75    74    1
   164   214   215    2
   165    21    18    1
   166   184   185    2
   167   199   198   ar
   168   200   198   ar
   169    74    71    1
   170    24    27    1
   171    24    23    1
   172    20    19    2
   173    23    19   am
   174    19    18    1
   175   198   197    1
   176    18    17    1
   177    71    70    1
   178    71    72    1
   179    62    61    2
   180    81    80    2
   181    70    61   am
   182    61    60    1
   183    84    78    1
   184    84    83    1
   185    72    78   am
   186    72    73    2
   187    66    68   ar
   188    66    64   ar
   189    50    49    2
   190    68    69   ar
   191   197   194    1
   192    78    79    1
   193    60    63    1
   194    60    59    1
   195   193   194    1
   196    80    79    1
   197   194   195    1
   198    63    64    1
   199    83    82    1
   200    64    65   ar
   201    69    67   ar
   202    49    59   am
   203    49    48    1
   204    79    82    1
   205    65    67   ar
   206    51    48    1
   207    51    52    1
   208   195   196    2
   209    54    52   ar
   210    54    56   ar
   211    48    47    1
   212    52    53   ar
   213    56    57   ar
   214    53    55   ar
   215    57    55   ar
   216    57    58    1
