@<TRIPOS>MOLECULE
tmp/1z45A00.pdb
 139 134 0 0 0
SMALL
GASTEIGER

@<TRIPOS>ATOM
      1  N         69.5060   28.1020   24.1500 N.3   395  SER395     -0.1202
      2  CA        68.7070   29.2090   23.7050 C.3   395  SER395      0.2020
      3  C         69.1560   30.6150   24.0860 C.2   395  SER395      0.2619
      4  O         69.6130   30.8730   25.2180 O.2   395  SER395     -0.2717
      5  CB        67.2680   29.0110   24.1650 C.3   395  SER395      0.2103
      6  OG        66.4520   30.0370   23.6270 O.3   395  SER395     -0.2182
      7  N         68.9650   31.5300   23.1120 N.am  396  ALA396     -0.1965
      8  CA        69.2180   32.9610   23.2880 C.3   396  ALA396      0.1728
      9  C         67.8560   33.6390   23.2970 C.2   396  ALA396      0.2616
     10  O         67.7650   34.8680   23.3420 O.2   396  ALA396     -0.2715
     11  CB        70.1310   33.6200   22.2740 C.3   396  ALA396      0.0334
     12  N         66.8270   32.7760   23.2730 N.am  397  TYR397     -0.1974
     13  CA        65.4090   33.1570   23.3130 C.3   397  TYR397      0.1639
     14  C         65.0140   33.9720   22.0990 C.2   397  TYR397      0.2290
     15  O         64.0610   34.7710   22.1450 O.2   397  TYR397     -0.2864
     16  CB        65.1390   34.0140   24.5640 C.3   397  TYR397      0.0560
     17  CG        65.4980   33.2910   25.8690 C.ar  397  TYR397     -0.0198
     18  CD1       66.7770   33.3300   26.4390 C.ar  397  TYR397     -0.0009
     19  CD2       64.5210   32.5380   26.5250 C.ar  397  TYR397     -0.0009
     20  CE1       67.0560   32.6640   27.6380 C.ar  397  TYR397      0.0417
     21  CE2       64.7780   31.8750   27.7300 C.ar  397  TYR397      0.0417
     22  CZ        66.0570   31.9350   28.2910 C.ar  397  TYR397      0.1957
     23  OH        66.3070   31.3180   29.5110 O.3   397  TYR397     -0.2866
     24  N         63.1200   38.3160   32.3620 N.3   407  ASN407     -0.1225
     25  CA        64.3050   38.7500   33.0890 C.3   407  ASN407      0.1785
     26  C         64.5050   38.0630   34.4310 C.2   407  ASN407      0.2597
     27  O         63.9320   37.0190   34.7120 O.2   407  ASN407     -0.2718
     28  CB        64.4980   40.2910   33.1290 C.3   407  ASN407      0.1169
     29  CG        65.9480   40.6670   32.8560 C.2   407  ASN407      0.2627
     30  OD1       66.8050   40.6240   33.7530 O.2   407  ASN407     -0.2716
     31  ND2       66.2860   40.9960   31.5920 N.am  407  ASN407     -0.0877
     32  N         65.3330   38.6560   35.2800 N.am  408  ARG408     -0.1979
     33  CA        65.6610   38.0490   36.5440 C.3   408  ARG408      0.1597
     34  C         64.7990   38.2630   37.7590 C.2   408  ARG408      0.2287
     35  O         64.2150   39.3330   38.0340 O.2   408  ARG408     -0.2864
     36  CB        67.0860   38.3860   36.8930 C.3   408  ARG408      0.0334
     37  CG        68.0090   37.8220   35.8340 C.3   408  ARG408      0.0492
     38  CD        69.3480   38.5240   35.8370 C.3   408  ARG408      0.2205
     39  NE        70.2710   37.9700   34.8510 N.pl3 408  ARG408     -0.0865
     40  CZ        70.3890   38.5200   33.6360 C.cat 408  ARG408      0.5346
     41  NH1       69.7040   39.6050   33.2320 N.pl3 408  ARG408      0.1354
     42  NH2       71.2220   37.9590   32.8000 N.pl3 408  ARG408      0.1354
     43  N         70.3760   30.9940   35.5950 N.3   427  ASN427     -0.1240
     44  CA        71.2530   32.0530   35.1390 C.3   427  ASN427      0.1653
     45  C         71.9620   32.6170   36.3720 C.2   427  ASN427      0.2266
     46  O         71.3640   33.3350   37.2200 O.2   427  ASN427     -0.2867
     47  CB        70.4230   33.1240   34.3470 C.3   427  ASN427      0.1155
     48  CG        71.2450   34.2420   33.6860 C.2   427  ASN427      0.2627
     49  OD1       71.5880   35.2580   34.3050 O.2   427  ASN427     -0.2716
     50  ND2       71.5740   34.0780   32.4060 N.am  427  ASN427     -0.0877
     51  N         66.3320   33.3250   35.3180 N.3   432  ASN432     -0.1225
     52  CA        66.1190   34.3610   34.3190 C.3   432  ASN432      0.1785
     53  C         65.0660   33.8840   33.3240 C.2   432  ASN432      0.2597
     54  O         65.0380   32.7110   32.9670 O.2   432  ASN432     -0.2718
     55  CB        67.4300   34.6750   33.5740 C.3   432  ASN432      0.1169
     56  CG        67.3550   35.8720   32.6240 C.2   432  ASN432      0.2627
     57  OD1       66.6070   36.8400   32.8400 O.2   432  ASN432     -0.2716
     58  ND2       68.1710   35.7650   31.5710 N.am  432  ASN432     -0.0877
     59  N         64.2000   34.7740   32.8710 N.am  433  HIS433     -0.1975
     60  CA        63.1960   34.3680   31.8940 C.3   433  HIS433      0.1656
     61  C         62.3480   33.1300   32.2570 C.2   433  HIS433      0.2291
     62  O         61.9500   32.3780   31.3810 O.2   433  HIS433     -0.2864
     63  CB        63.7440   34.3340   30.4320 C.3   433  HIS433      0.0771
     64  CG        64.4940   35.5780   29.9940 C.ar  433  HIS433      0.0820
     65  ND1       64.0650   36.8510   30.3110 N.ar  433  HIS433     -0.2267
     66  CD2       65.6490   35.7140   29.2670 C.ar  433  HIS433      0.1154
     67  CE1       64.9430   37.7110   29.7560 C.ar  433  HIS433      0.1986
     68  NE2       65.9100   37.0490   29.1090 N.ar  433  HIS433     -0.2212
     69  N         61.1740   38.7790   22.7650 N.3   512  HIS512     -0.1241
     70  CA        62.6080   38.7760   22.7040 C.3   512  HIS512      0.1621
     71  C         63.2380   38.7950   21.3200 C.2   512  HIS512      0.2264
     72  O         64.3020   38.1900   21.0880 O.2   512  HIS512     -0.2867
     73  CB        63.1390   37.5850   23.5460 C.3   512  HIS512      0.0745
     74  CG        64.4290   37.8910   24.1920 C.ar  512  HIS512      0.0817
     75  ND1       65.5860   37.9810   23.4450 N.ar  512  HIS512     -0.2268
     76  CD2       64.6900   38.1650   25.4930 C.ar  512  HIS512      0.1154
     77  CE1       66.5350   38.2840   24.3110 C.ar  512  HIS512      0.1986
     78  NE2       66.0200   38.3920   25.5410 N.ar  512  HIS512     -0.2212
     79  N         65.3730   39.7860   18.2070 N.3   514  TYR514     -0.1241
     80  CA        66.6810   40.3390   18.0480 C.3   514  TYR514      0.1605
     81  C         66.7140   40.9610   16.6650 C.2   514  TYR514      0.2264
     82  O         66.5090   40.3050   15.6010 O.2   514  TYR514     -0.2867
     83  CB        67.8250   39.3370   18.0980 C.3   514  TYR514      0.0534
     84  CG        68.1290   38.7720   19.4670 C.ar  514  TYR514     -0.0201
     85  CD1       67.3650   37.7200   19.9760 C.ar  514  TYR514     -0.0009
     86  CD2       69.2220   39.2480   20.2040 C.ar  514  TYR514     -0.0009
     87  CE1       67.6580   37.1810   21.2330 C.ar  514  TYR514      0.0417
     88  CE2       69.5450   38.6880   21.4410 C.ar  514  TYR514      0.0417
     89  CZ        68.7580   37.6470   21.9590 C.ar  514  TYR514      0.1957
     90  OH        69.0530   37.0690   23.1810 O.3   514  TYR514     -0.2866
     91  N         73.2300   45.8140   28.4830 N.3   574  ASP574     -0.1239
     92  CA        72.4090   44.7670   29.0500 C.3   574  ASP574      0.1674
     93  C         71.7270   45.3880   30.2580 C.2   574  ASP574      0.2266
     94  O         72.0240   45.0390   31.3910 O.2   574  ASP574     -0.2867
     95  CB        73.0450   43.3690   29.2720 C.3   574  ASP574      0.1410
     96  CG        72.0190   42.3480   29.7320 C.2   574  ASP574      0.3668
     97  OD1       70.8140   42.5490   29.7190 O.co2 574  ASP574     -0.2456
     98  OD2       72.5590   41.2380   30.1660 O.co2 574  ASP574     -0.2456
     99  N         64.1820   46.5750   28.5190 N.3   620  GLN620     -0.1245
    100  CA        65.5440   46.0380   28.5820 C.3   620  GLN620      0.1566
    101  C         66.2160   46.2530   27.2100 C.2   620  GLN620      0.2260
    102  O         65.6260   46.0540   26.1280 O.2   620  GLN620     -0.2867
    103  CB        65.5570   44.5250   28.9010 C.3   620  GLN620      0.0367
    104  CG        66.9320   43.9610   29.3350 C.3   620  GLN620      0.0905
    105  CD        67.3800   44.3410   30.7600 C.2   620  GLN620      0.2608
    106  OE1       66.5590   44.8930   31.5390 O.2   620  GLN620     -0.2717
    107  NE2       68.6550   44.0390   31.0880 N.am  620  GLN620     -0.0878
    108  N         69.5680   45.1290   25.0620 N.3   622  TYR622     -0.1241
    109  CA        70.6820   44.2170   25.1020 C.3   622  TYR622      0.1605
    110  C         71.3220   44.0490   23.7550 C.2   622  TYR622      0.2264
    111  O         70.6120   43.7260   22.8170 O.2   622  TYR622     -0.2867
    112  CB        70.2190   42.8640   25.7270 C.3   622  TYR622      0.0534
    113  CG        71.0990   41.6380   25.5220 C.ar  622  TYR622     -0.0201
    114  CD1       72.4230   41.6190   25.9670 C.ar  622  TYR622     -0.0009
    115  CD2       70.5850   40.5070   24.8640 C.ar  622  TYR622     -0.0009
    116  CE1       73.2100   40.4800   25.7600 C.ar  622  TYR622      0.0417
    117  CE2       71.3450   39.3480   24.6810 C.ar  622  TYR622      0.0417
    118  CZ        72.6680   39.3550   25.1290 C.ar  622  TYR622      0.1957
    119  OH        73.4550   38.2520   24.9520 O.3   622  TYR622     -0.2866
    120  N         76.2930   38.1070   24.2930 N.3   626  PHE626     -0.1241
    121  CA        76.3960   36.7070   24.6840 C.3   626  PHE626      0.1605
    122  C         75.6100   35.8030   23.7580 C.2   626  PHE626      0.2264
    123  O         75.2260   34.7090   24.1590 O.2   626  PHE626     -0.2867
    124  CB        76.0260   36.4890   26.1740 C.3   626  PHE626      0.0534
    125  CG        76.5360   37.6610   26.9940 C.ar  626  PHE626     -0.0203
    126  CD1       75.6910   38.6090   27.5870 C.ar  626  PHE626     -0.0042
    127  CD2       77.9170   37.8260   27.1250 C.ar  626  PHE626     -0.0042
    128  CE1       76.2220   39.6900   28.2980 C.ar  626  PHE626     -0.0003
    129  CE2       78.4650   38.8980   27.8360 C.ar  626  PHE626     -0.0003
    130  CZ        77.6080   39.8350   28.4200 C.ar  626  PHE626     -0.0000
    131  N         63.3110   44.8410   25.0640 N.3   640  GLU640     -0.1245
    132  CA        62.2060   44.1640   25.7170 C.3   640  GLU640      0.1567
    133  C         61.4320   44.9550   26.7310 C.2   640  GLU640      0.2260
    134  O         61.7900   44.9830   27.8990 O.2   640  GLU640     -0.2867
    135  CB        62.7720   42.9770   26.4870 C.3   640  GLU640      0.0388
    136  CG        63.7080   42.0610   25.6430 C.3   640  GLU640      0.1160
    137  CD        64.3880   41.0450   26.5620 C.2   640  GLU640      0.3649
    138  OE1       63.8290   40.1860   27.2120 O.co2 640  GLU640     -0.2457
    139  OE2       65.6700   41.1550   26.6130 O.co2 640  GLU640     -0.2457
@<TRIPOS>BOND
     1    82    81    2
     2    81    80    1
     3    80    83    1
     4    80    79    1
     5    83    84    1
     6    84    85   ar
     7    84    86   ar
     8    85    87   ar
     9    86    88   ar
    10    72    71    2
    11    87    89   ar
    12    71    70    1
    13    88    89   ar
    14    89    90    1
    15    14    15    2
    16    14    13    1
    17    11     8    1
    18    70    69    1
    19    70    73    1
    20   111   110    2
    21     7     8    1
    22     7     3   am
    23    12     9   am
    24    12    13    1
    25     8     9    1
    26     9    10    2
    27    13    16    1
    28    75    74   ar
    29    75    77   ar
    30    73    74    1
    31     6     5    1
    32     2     3    1
    33     2     1    1
    34     2     5    1
    35   110   109    1
    36   122   123    2
    37   122   121    1
    38     3     4    2
    39    74    76   ar
    40   120   121    1
    41    77    78   ar
    42    16    17    1
    43   117   115   ar
    44   117   118   ar
    45   121   124    1
    46   115   113   ar
    47   119   118    1
    48   108   109    1
    49   131   132    1
    50   109   112    1
    51   118   116   ar
    52    76    78   ar
    53   113   112    1
    54   113   114   ar
    55   136   135    1
    56   136   137    1
    57   132   135    1
    58   132   133    1
    59   116   114   ar
    60    17    18   ar
    61    17    19   ar
    62   102   101    2
    63   124   125    1
    64    18    20   ar
    65    19    21   ar
    66   137   139   ar
    67   137   138   ar
    68   133   134    2
    69   125   127   ar
    70   125   126   ar
    71   127   129   ar
    72   101   100    1
    73   126   128   ar
    74    20    22   ar
    75    21    22   ar
    76   129   130   ar
    77    22    23    1
    78   128   130   ar
    79    91    92    1
    80    99   100    1
    81   100   103    1
    82   103   104    1
    83    92    95    1
    84    92    93    1
    85    68    66   ar
    86    68    67   ar
    87    66    64   ar
    88    95    96    1
    89   104   105    1
    90    97    96   ar
    91    96    98   ar
    92    67    65   ar
    93    64    65   ar
    94    64    63    1
    95    93    94    2
    96    63    60    1
    97   105   107   am
    98   105   106    2
    99    62    61    2
   100    58    56   am
   101    31    29   am
   102    60    61    1
   103    60    59    1
   104    24    25    1
   105    50    48   am
   106    56    57    2
   107    56    55    1
   108    42    40    1
   109    29    28    1
   110    29    30    2
   111    59    53   am
   112    54    53    2
   113    25    28    1
   114    25    26    1
   115    41    40    1
   116    53    52    1
   117    55    52    1
   118    40    39    2
   119    48    49    2
   120    48    47    1
   121    52    51    1
   122    47    44    1
   123    26    27    2
   124    26    32   am
   125    39    38    1
   126    44    43    1
   127    44    45    1
   128    32    33    1
   129    37    38    1
   130    37    36    1
   131    45    46    2
   132    33    36    1
   133    33    34    1
   134    34    35    2
