@<TRIPOS>MOLECULE
tmp/1z4aF00.pdb
 90 83 0 0 0
SMALL
GASTEIGER

@<TRIPOS>ATOM
      1  N         35.2290   50.3040   33.9460 N.3    20  ILE20      -0.1245
      2  CA        35.3860   49.1140   33.1230 C.3    20  ILE20       0.1561
      3  C         34.5460   49.2470   31.8630 C.2    20  ILE20       0.2260
      4  O         35.0030   48.9280   30.7710 O.2    20  ILE20      -0.2867
      5  CB        35.0210   47.8560   33.9240 C.3    20  ILE20       0.0252
      6  CG1       36.2310   47.4970   34.8070 C.3    20  ILE20       0.0019
      7  CG2       34.6480   46.7070   32.9930 C.3    20  ILE20       0.0019
      8  CD1       35.9160   46.5920   35.9090 C.3    20  ILE20       0.0001
      9  N         36.1260   51.5370   29.4250 N.3    23  SER23      -0.1202
     10  CA        37.2080   50.8530   28.7410 C.3    23  SER23       0.2020
     11  C         36.6500   50.0050   27.5980 C.2    23  SER23       0.2618
     12  O         37.2040   49.9660   26.5060 O.2    23  SER23      -0.2717
     13  CB        37.9570   49.9480   29.7120 C.3    23  SER23       0.2103
     14  OG        38.9920   49.2360   29.0350 O.3    23  SER23      -0.2182
     15  N         35.5470   49.3240   27.8710 N.am   24  TYR24      -0.1975
     16  CA        34.9170   48.4700   26.8850 C.3    24  TYR24       0.1639
     17  C         34.3480   49.3330   25.7510 C.2    24  TYR24       0.2290
     18  O         34.4670   48.9800   24.5840 O.2    24  TYR24      -0.2864
     19  CB        33.8220   47.6690   27.5710 C.3    24  TYR24       0.0560
     20  CG        33.4880   46.3410   26.9450 C.ar   24  TYR24      -0.0198
     21  CD1       34.4820   45.4720   26.5370 C.ar   24  TYR24      -0.0009
     22  CD2       32.1510   45.9340   26.8240 C.ar   24  TYR24      -0.0009
     23  CE1       34.1580   44.2160   26.0200 C.ar   24  TYR24       0.0417
     24  CE2       31.8110   44.6930   26.3160 C.ar   24  TYR24       0.0417
     25  CZ        32.8240   43.8400   25.9090 C.ar   24  TYR24       0.1957
     26  OH        32.4810   42.6400   25.3520 O.3    24  TYR24      -0.2866
     27  N         36.9950   50.2590   23.4690 N.3    27  LEU27      -0.1245
     28  CA        37.4780   49.1270   22.6820 C.3    27  LEU27       0.1561
     29  C         36.5150   48.9410   21.5270 C.2    27  LEU27       0.2260
     30  O         36.9050   48.5690   20.4300 O.2    27  LEU27      -0.2867
     31  CB        37.4810   47.8460   23.5100 C.3    27  LEU27       0.0270
     32  CG        38.6390   46.8570   23.3410 C.3    27  LEU27       0.0019
     33  CD1       38.1500   45.4570   23.7240 C.3    27  LEU27       0.0001
     34  CD2       39.1580   46.8580   21.9430 C.3    27  LEU27       0.0001
     35  N         42.4370   51.9120   21.7270 N.3    46  LYS46      -0.1231
     36  CA        42.8930   50.7860   22.4980 C.3    46  LYS46       0.1693
     37  C         43.6640   51.3390   23.6880 C.2    46  LYS46       0.2591
     38  O         43.3980   50.9600   24.8420 O.2    46  LYS46      -0.2718
     39  CB        43.7800   49.8720   21.6520 C.3    46  LYS46       0.0285
     40  CG        43.0670   49.2220   20.4510 C.3    46  LYS46       0.0035
     41  CD        44.0820   48.4720   19.5350 C.3    46  LYS46       0.0206
     42  CE        43.4700   48.0240   18.1960 C.3    46  LYS46       0.1093
     43  NZ        44.4420   47.2420   17.3500 N.3    46  LYS46      -0.1314
     44  N         44.6170   52.2350   23.4190 N.am   47  LYS47      -0.1980
     45  CA        45.4030   52.8350   24.4970 C.3    47  LYS47       0.1596
     46  C         44.4440   53.5120   25.4680 C.2    47  LYS47       0.2287
     47  O         44.5960   53.3690   26.6700 O.2    47  LYS47      -0.2864
     48  CB        46.4030   53.8580   23.9470 C.3    47  LYS47       0.0298
     49  CG        47.5780   53.2390   23.1940 C.3    47  LYS47       0.0038
     50  CD        48.5840   52.5830   24.1260 C.3    47  LYS47       0.0206
     51  CE        49.6380   51.8210   23.3230 C.3    47  LYS47       0.1093
     52  NZ        50.7120   51.2140   24.1720 N.3    47  LYS47      -0.1314
     53  N         41.6380   52.6290   26.1870 N.3    49  ALA49      -0.1231
     54  CA        40.9690   51.5510   26.9130 C.3    49  ALA49       0.1694
     55  C         41.8320   51.0720   28.0710 C.2    49  ALA49       0.2591
     56  O         41.3300   50.8750   29.1820 O.2    49  ALA49      -0.2718
     57  CB        40.6580   50.3760   25.9690 C.3    49  ALA49       0.0304
     58  N         43.1220   50.8820   27.8200 N.am   50  GLN50      -0.1979
     59  CA        44.0170   50.4330   28.8810 C.3    50  GLN50       0.1601
     60  C         44.1250   51.4680   29.9860 C.2    50  GLN50       0.2287
     61  O         44.1770   51.1270   31.1710 O.2    50  GLN50      -0.2864
     62  CB        45.3940   50.1640   28.3330 C.3    50  GLN50       0.0394
     63  CG        45.3790   49.2170   27.1920 C.3    50  GLN50       0.0908
     64  CD        46.7700   48.8800   26.7480 C.2    50  GLN50       0.2608
     65  OE1       47.4930   48.1850   27.4550 O.2    50  GLN50      -0.2717
     66  NE2       47.1700   49.3890   25.5840 N.am   50  GLN50      -0.0878
     67  N         41.3550   51.1480   32.3440 N.3    53  LEU53      -0.1245
     68  CA        41.4500   50.0140   33.2360 C.3    53  LEU53       0.1561
     69  C         42.3390   50.3770   34.4180 C.2    53  LEU53       0.2260
     70  O         42.0140   50.0360   35.5600 O.2    53  LEU53      -0.2867
     71  CB        42.0320   48.7930   32.5330 C.3    53  LEU53       0.0270
     72  CG        41.0910   48.0090   31.6220 C.3    53  LEU53       0.0019
     73  CD1       41.8890   46.8730   30.9730 C.3    53  LEU53       0.0001
     74  CD2       39.8830   47.4440   32.4220 C.3    53  LEU53       0.0001
     75  N         41.3340   50.0280   38.3590 N.3    57  MET57      -0.1245
     76  CA        42.1530   49.3420   39.3560 C.3    57  MET57       0.1570
     77  C         42.5670   50.2570   40.5230 C.2    57  MET57       0.2261
     78  O         42.8730   49.7850   41.6260 O.2    57  MET57      -0.2867
     79  CB        43.3810   48.7150   38.7020 C.3    57  MET57       0.0387
     80  CG        43.0360   47.5390   37.7730 C.3    57  MET57       0.0595
     81  SD        41.8800   46.3250   38.5220 S.3    57  MET57      -0.1393
     82  CE        42.9650   45.4650   39.6960 C.3    57  MET57       0.0692
     83  N         28.4880   43.9220   32.4320 N.3    75  ILE75      -0.1245
     84  CA        28.8670   45.0530   31.5840 C.3    75  ILE75       0.1561
     85  C         27.9640   45.0310   30.3600 C.2    75  ILE75       0.2260
     86  O         27.9960   44.0850   29.5730 O.2    75  ILE75      -0.2867
     87  CB        30.3220   44.9380   31.1080 C.3    75  ILE75       0.0252
     88  CG1       31.2380   44.6890   32.3010 C.3    75  ILE75       0.0019
     89  CG2       30.7370   46.2170   30.4100 C.3    75  ILE75       0.0019
     90  CD1       32.6130   44.2060   31.9140 C.3    75  ILE75       0.0001
@<TRIPOS>BOND
     1    43    42    1
     2    42    41    1
     3    41    40    1
     4    30    29    2
     5    40    39    1
     6    29    28    1
     7    39    36    1
     8    35    36    1
     9    34    32    1
    10    36    37    1
    11    28    27    1
    12    28    31    1
    13    49    48    1
    14    49    50    1
    15    51    50    1
    16    51    52    1
    17    32    31    1
    18    32    33    1
    19    44    37   am
    20    44    45    1
    21    37    38    2
    22    48    45    1
    23    45    46    1
    24    18    17    2
    25    26    25    1
    26    46    47    2
    27    66    64   am
    28    17    16    1
    29    25    23   ar
    30    25    24   ar
    31    57    54    1
    32    23    21   ar
    33    53    54    1
    34    24    22   ar
    35    12    11    2
    36    21    20   ar
    37    64    63    1
    38    64    65    2
    39    22    20   ar
    40    16    19    1
    41    16    15    1
    42    54    55    1
    43    20    19    1
    44    63    62    1
    45    11    15   am
    46    11    10    1
    47    58    55   am
    48    58    59    1
    49    55    56    2
    50    62    59    1
    51    10     9    1
    52    10    13    1
    53    59    60    1
    54    14    13    1
    55    86    85    2
    56    60    61    2
    57    85    84    1
    58    89    87    1
    59     4     3    2
    60    73    72    1
    61    87    84    1
    62    87    88    1
    63    84    83    1
    64    72    74    1
    65    72    71    1
    66     3     2    1
    67    90    88    1
    68    67    68    1
    69    71    68    1
    70     7     5    1
    71     2     5    1
    72     2     1    1
    73    68    69    1
    74     5     6    1
    75    69    70    2
    76     6     8    1
    77    80    81    1
    78    80    79    1
    79    75    76    1
    80    81    82    1
    81    79    76    1
    82    76    77    1
    83    77    78    2
