@<TRIPOS>MOLECULE
tmp/1z4jA00.pdb
 174 172 0 0 0
SMALL
GASTEIGER

@<TRIPOS>ATOM
      1  N         21.6180   39.4590   35.0480 N.3     8  ASN8       -0.1240
      2  CA        20.5300   39.8690   34.1460 C.3     8  ASN8        0.1653
      3  C         19.5030   40.7600   34.8380 C.2     8  ASN8        0.2266
      4  O         19.3510   40.6840   36.0380 O.2     8  ASN8       -0.2867
      5  CB        19.8900   38.6020   33.5740 C.3     8  ASN8        0.1155
      6  CG        18.7980   38.8860   32.4990 C.2     8  ASN8        0.2627
      7  OD1       17.6490   38.3250   32.4920 O.2     8  ASN8       -0.2716
      8  ND2       19.1520   39.8000   31.5440 N.am    8  ASN8       -0.0877
      9  N         15.7640   41.8860   33.5540 N.3    10  ASP10      -0.1239
     10  CA        14.4110   41.3670   33.5300 C.3    10  ASP10       0.1674
     11  C         14.4100   39.8790   33.8480 C.2    10  ASP10       0.2266
     12  O         15.1610   39.0560   33.2190 O.2    10  ASP10      -0.2867
     13  CB        13.7560   41.6080   32.1720 C.3    10  ASP10       0.1410
     14  CG        13.5850   43.0650   31.8990 C.2    10  ASP10       0.3668
     15  OD1       12.9220   43.7350   32.7060 O.co2  10  ASP10      -0.2456
     16  OD2       14.1760   43.6190   31.0010 O.co2  10  ASP10      -0.2456
     17  N          9.5180   41.5910   35.4000 N.3    16  PHE16      -0.1227
     18  CA         8.9070   41.8260   34.1080 C.3    16  PHE16       0.1736
     19  C          7.6280   41.0150   34.0100 C.2    16  PHE16       0.2595
     20  O          6.6050   41.5220   33.5430 O.2    16  PHE16      -0.2718
     21  CB         9.9330   41.3760   33.0300 C.3    16  PHE16       0.0547
     22  CG         9.4890   41.5960   31.6130 C.ar   16  PHE16      -0.0202
     23  CD1        8.6250   40.7130   30.9890 C.ar   16  PHE16      -0.0042
     24  CD2        9.9730   42.6880   30.8870 C.ar   16  PHE16      -0.0042
     25  CE1        8.2160   40.9270   29.6870 C.ar   16  PHE16      -0.0003
     26  CE2        9.5570   42.8990   29.5660 C.ar   16  PHE16      -0.0003
     27  CZ         8.6860   42.0020   28.9840 C.ar   16  PHE16      -0.0000
     28  N          7.6560   39.7440   34.4390 N.am   17  GLU17      -0.1979
     29  CA         6.4590   38.8930   34.1970 C.3    17  GLU17       0.1602
     30  C          5.2690   39.3810   34.9860 C.2    17  GLU17       0.2287
     31  O          4.1530   39.5210   34.4560 O.2    17  GLU17      -0.2864
     32  CB         6.7590   37.4170   34.4960 C.3    17  GLU17       0.0415
     33  CG         7.7440   36.8140   33.4970 C.3    17  GLU17       0.1163
     34  CD         7.0890   36.2310   32.2690 C.2    17  GLU17       0.3649
     35  OE1        5.8030   36.1090   32.1910 O.co2  17  GLU17      -0.2457
     36  OE2        7.8900   35.8640   31.3870 O.co2  17  GLU17      -0.2457
     37  N         10.2070   31.4020   26.9460 N.3    42  PHE42      -0.1227
     38  CA        10.7610   32.6910   27.3360 C.3    42  PHE42       0.1736
     39  C          9.8940   33.8640   26.9150 C.2    42  PHE42       0.2595
     40  O          9.6750   34.7810   27.6970 O.2    42  PHE42      -0.2718
     41  CB        12.1600   32.8450   26.7550 C.3    42  PHE42       0.0547
     42  CG        12.7970   34.1660   27.0750 C.ar   42  PHE42      -0.0202
     43  CD1       13.2720   34.4430   28.3600 C.ar   42  PHE42      -0.0042
     44  CD2       12.9390   35.1130   26.0890 C.ar   42  PHE42      -0.0042
     45  CE1       13.8610   35.6590   28.6390 C.ar   42  PHE42      -0.0003
     46  CE2       13.4970   36.3420   26.3520 C.ar   42  PHE42      -0.0003
     47  CZ        13.9720   36.6140   27.6420 C.ar   42  PHE42      -0.0000
     48  N          9.4510   33.8630   25.6640 N.am   43  TRP43      -0.1962
     49  CA         8.7630   35.0320   25.0850 C.3    43  TRP43       0.1771
     50  C          7.2990   35.0980   25.4390 C.2    43  TRP43       0.2619
     51  O          6.4940   34.2720   24.9450 O.2    43  TRP43      -0.2715
     52  CB         8.9160   35.0590   23.5780 C.3    43  TRP43       0.0590
     53  CG        10.3040   35.1470   23.0850 C.ar   43  TRP43       0.0006
     54  CD1       10.9950   34.1840   22.4290 C.ar   43  TRP43       0.0946
     55  CD2       11.1650   36.2750   23.1710 C.ar   43  TRP43       0.0152
     56  NE1       12.2410   34.6430   22.0900 N.ar   43  TRP43      -0.2442
     57  CE2       12.3670   35.9340   22.5320 C.ar   43  TRP43       0.0810
     58  CE3       11.0440   37.5520   23.7340 C.ar   43  TRP43       0.0012
     59  CZ2       13.4470   36.8200   22.4370 C.ar   43  TRP43       0.0191
     60  CZ3       12.1030   38.4200   23.6410 C.ar   43  TRP43       0.0001
     61  CH2       13.2890   38.0530   22.9800 C.ar   43  TRP43       0.0015
     62  N          6.9460   36.0690   26.2810 N.am   44  VAL44      -0.1963
     63  CA         5.5800   36.3470   26.6560 C.3    44  VAL44       0.1727
     64  C          4.6920   36.4420   25.4030 C.2    44  VAL44       0.2616
     65  O          3.6100   35.8120   25.3430 O.2    44  VAL44      -0.2715
     66  CB         5.4660   37.6640   27.4540 C.3    44  VAL44       0.0290
     67  CG1        3.9880   38.1350   27.6130 C.3    44  VAL44       0.0023
     68  CG2        6.0470   37.5080   28.8330 C.3    44  VAL44       0.0023
     69  N          5.1490   37.2030   24.4100 N.am   45  SER45      -0.1950
     70  CA         4.2910   37.5270   23.2650 C.3    45  SER45       0.1924
     71  C          3.9810   36.2970   22.4240 C.2    45  SER45       0.2314
     72  O          2.8820   36.2090   21.8540 O.2    45  SER45      -0.2863
     73  CB         4.8800   38.6070   22.3990 C.3    45  SER45       0.2116
     74  OG         5.9880   38.1620   21.6730 O.3    45  SER45      -0.2180
     75  N          4.8120   46.5450   27.0440 N.3    63  TRP63      -0.1241
     76  CA         6.2000   46.8840   27.3520 C.3    63  TRP63       0.1605
     77  C          6.8030   47.9720   26.4980 C.2    63  TRP63       0.2264
     78  O          7.8010   48.5670   26.8940 O.2    63  TRP63      -0.2867
     79  CB         7.0810   45.6680   27.3930 C.3    63  TRP63       0.0550
     80  CG         7.1560   44.7630   26.2210 C.ar   63  TRP63       0.0003
     81  CD1        7.8210   44.9630   25.0570 C.ar   63  TRP63       0.0946
     82  CD2        6.5980   43.4600   26.1580 C.ar   63  TRP63       0.0152
     83  NE1        7.6960   43.8490   24.2540 N.ar   63  TRP63      -0.2442
     84  CE2        6.9330   42.9180   24.9180 C.ar   63  TRP63       0.0810
     85  CE3        5.7900   42.7100   27.0230 C.ar   63  TRP63       0.0012
     86  CZ2        6.5550   41.6300   24.5370 C.ar   63  TRP63       0.0191
     87  CZ3        5.3810   41.4460   26.6230 C.ar   63  TRP63       0.0001
     88  CH2        5.7860   40.9080   25.4220 C.ar   63  TRP63       0.0015
     89  N          9.1320   49.7880   31.9860 N.3    69  PHE69      -0.1241
     90  CA        10.3610   49.3080   32.5990 C.3    69  PHE69       0.1605
     91  C         10.6610   50.0050   33.9000 C.2    69  PHE69       0.2264
     92  O         11.0910   49.3480   34.8790 O.2    69  PHE69      -0.2867
     93  CB        11.5300   49.4010   31.6510 C.3    69  PHE69       0.0534
     94  CG        11.4640   48.3750   30.5940 C.ar   69  PHE69      -0.0203
     95  CD1       11.8230   47.0810   30.8600 C.ar   69  PHE69      -0.0042
     96  CD2       10.9110   48.6800   29.3360 C.ar   69  PHE69      -0.0042
     97  CE1       11.7370   46.1020   29.8830 C.ar   69  PHE69      -0.0003
     98  CE2       10.8030   47.7080   28.3820 C.ar   69  PHE69      -0.0003
     99  CZ        11.1770   46.4110   28.6580 C.ar   69  PHE69      -0.0000
    100  N         21.7230   43.4940   30.3510 N.3    97  THR97      -0.1203
    101  CA        20.3420   43.5010   29.9590 C.3    97  THR97       0.1994
    102  C         20.2420   43.8700   28.5010 C.2    97  THR97       0.2619
    103  O         21.0600   44.6440   27.9820 O.2    97  THR97      -0.2717
    104  CB        19.5570   44.5090   30.8380 C.3    97  THR97       0.1784
    105  OG1       18.1680   44.5610   30.4340 O.3    97  THR97      -0.2211
    106  CG2       20.0920   45.8890   30.7020 C.3    97  THR97       0.0376
    107  N         19.2310   43.3280   27.8460 N.am   98  SER98      -0.1938
    108  CA        18.9700   43.6380   26.4290 C.3    98  SER98       0.2040
    109  C         17.8030   44.5850   26.2970 C.2    98  SER98       0.2485
    110  O         16.7750   44.4080   26.9690 O.2    98  SER98      -0.2729
    111  CB        18.6600   42.3550   25.6500 C.3    98  SER98       0.2129
    112  OG        19.7320   41.4280   25.6700 O.3    98  SER98      -0.2179
    113  N         17.8900   45.6190   25.4650 N.am   99  PRO99      -0.2715
    114  CA        16.7400   46.4940   25.2870 C.3    99  PRO99       0.1536
    115  C         15.7280   45.8390   24.3240 C.2    99  PRO99       0.2598
    116  O         16.1390   44.9900   23.5290 O.2    99  PRO99      -0.2715
    117  CB        17.3300   47.7360   24.6090 C.3    99  PRO99       0.0310
    118  CG        18.4940   47.1620   23.7880 C.3    99  PRO99       0.0237
    119  CD        19.0560   46.0140   24.6420 C.3    99  PRO99       0.0939
    120  N         14.4520   46.1920   24.4070 N.am  100  ILE100     -0.1978
    121  CA        13.4670   45.7660   23.3960 C.3   100  ILE100      0.1596
    122  C         13.7500   46.5260   22.0750 C.2   100  ILE100      0.2287
    123  O         14.6040   47.3690   22.0240 O.2   100  ILE100     -0.2864
    124  CB        12.0380   46.0300   23.8930 C.3   100  ILE100      0.0276
    125  CG1       11.8260   47.4790   24.3080 C.3   100  ILE100      0.0022
    126  CG2       11.7390   45.1550   25.0900 C.3   100  ILE100      0.0022
    127  CD1       10.3760   47.8290   24.4980 C.3   100  ILE100      0.0001
    128  N         22.2050   43.3800   22.9460 N.3   130  ARG130     -0.1245
    129  CA        21.3220   42.3040   22.4680 C.3   130  ARG130      0.1563
    130  C         22.0150   40.9600   22.4790 C.2   130  ARG130      0.2260
    131  O         21.3500   39.9250   22.4480 O.2   130  ARG130     -0.2867
    132  CB        20.7590   42.5650   21.0720 C.3   130  ARG130      0.0307
    133  CG        19.8680   43.7800   21.0120 C.3   130  ARG130      0.0489
    134  CD        18.3970   43.5930   21.3840 C.3   130  ARG130      0.2205
    135  NE        17.6480   42.7850   20.4140 N.pl3 130  ARG130     -0.0865
    136  CZ        16.3170   42.6240   20.4170 C.cat 130  ARG130      0.5346
    137  NH1       15.5570   43.2210   21.3210 N.pl3 130  ARG130      0.1354
    138  NH2       15.7390   41.8680   19.4920 N.pl3 130  ARG130      0.1354
    139  N         24.5800   38.7240   24.6240 N.3   132  LYS132     -0.1245
    140  CA        25.2750   38.5430   25.8720 C.3   132  LYS132      0.1561
    141  C         26.4980   37.6740   25.7430 C.2   132  LYS132      0.2260
    142  O         27.3270   37.6770   26.6160 O.2   132  LYS132     -0.2867
    143  CB        24.2990   37.9820   26.9080 C.3   132  LYS132      0.0271
    144  CG        23.1170   38.9640   27.2070 C.3   132  LYS132      0.0035
    145  CD        21.9720   38.2440   27.8790 C.3   132  LYS132      0.0206
    146  CE        20.7650   39.1670   28.1500 C.3   132  LYS132      0.1093
    147  NZ        19.5870   38.2470   28.4520 N.3   132  LYS132     -0.1314
    148  N         20.8570   34.4520   34.5930 N.3   142  ASP142     -0.1225
    149  CA        19.9350   34.9140   33.5770 C.3   142  ASP142      0.1805
    150  C         18.8090   33.9290   33.4750 C.2   142  ASP142      0.2598
    151  O         19.0280   32.7360   33.5170 O.2   142  ASP142     -0.2718
    152  CB        20.7040   35.0340   32.2260 C.3   142  ASP142      0.1424
    153  CG        19.9440   35.8180   31.1890 C.2   142  ASP142      0.3668
    154  OD1       18.7610   35.4600   30.9000 O.co2 142  ASP142     -0.2456
    155  OD2       20.4330   36.8500   30.6450 O.co2 142  ASP142     -0.2456
    156  N         17.5930   34.4240   33.4050 N.am  143  ASP143     -0.1960
    157  CA        16.3890   33.5650   33.3610 C.3   143  ASP143      0.1840
    158  C         16.0840   32.9560   32.0010 C.2   143  ASP143      0.2621
    159  O         15.2190   32.1000   31.9030 O.2   143  ASP143     -0.2715
    160  CB        15.1680   34.3530   33.8200 C.3   143  ASP143      0.1450
    161  CG        14.8270   35.5240   32.9070 C.2   143  ASP143      0.3671
    162  OD1       15.7230   36.4130   32.6470 O.co2 143  ASP143     -0.2456
    163  OD2       13.6270   35.7060   32.5070 O.co2 143  ASP143     -0.2456
    164  N         16.7320   33.4300   30.9360 N.am  144  ARG144     -0.1977
    165  CA        16.5220   32.8450   29.6090 C.3   144  ARG144      0.1597
    166  C         17.2640   31.5180   29.4260 C.2   144  ARG144      0.2287
    167  O         18.4770   31.4690   29.6620 O.2   144  ARG144     -0.2864
    168  CB        16.9530   33.8080   28.5120 C.3   144  ARG144      0.0334
    169  CG        16.6550   33.2090   27.1340 C.3   144  ARG144      0.0492
    170  CD        16.6010   34.2430   26.0880 C.3   144  ARG144      0.2205
    171  NE        16.2420   33.7590   24.7500 N.pl3 144  ARG144     -0.0865
    172  CZ        16.2980   34.5740   23.6990 C.cat 144  ARG144      0.5346
    173  NH1       16.6750   35.8440   23.8620 N.pl3 144  ARG144      0.1354
    174  NH2       15.9790   34.1520   22.5050 N.pl3 144  ARG144      0.1354
@<TRIPOS>BOND
     1   138   136    1
     2   135   136    2
     3   135   134    1
     4   136   137    1
     5   133   132    1
     6   133   134    1
     7   132   129    1
     8    74    73    1
     9    72    71    2
    10   123   122    2
    11   122   121    1
    12    56    54   ar
    13    56    57   ar
    14    73    70    1
    15    71    70    1
    16    54    53   ar
    17    59    57   ar
    18    59    61   ar
    19   131   130    2
    20   129   130    1
    21   129   128    1
    22   174   172    1
    23    57    55   ar
    24    61    60   ar
    25    53    55   ar
    26    53    52    1
    27    55    58   ar
    28    70    69    1
    29   121   124    1
    30   121   120    1
    31   116   115    2
    32    52    49    1
    33    60    58   ar
    34   172   173    1
    35   172   171    2
    36   118   117    1
    37   118   119    1
    38   124   125    1
    39   124   126    1
    40    83    84   ar
    41    83    81   ar
    42   125   127    1
    43   115   120   am
    44   115   114    1
    45    69    64   am
    46    86    84   ar
    47    86    88   ar
    48   117   114    1
    49   139   140    1
    50   119   113    1
    51   171   170    1
    52    84    82   ar
    53    51    50    2
    54    81    80   ar
    55    49    50    1
    56    49    48    1
    57   114   113    1
    58    65    64    2
    59    64    63    1
    60    88    87   ar
    61    50    62   am
    62   113   109   am
    63   111   112    1
    64   111   108    1
    65    48    39   am
    66   141   140    1
    67   141   142    2
    68   140   143    1
    69   170   169    1
    70    44    46   ar
    71    44    42   ar
    72    82    80   ar
    73    82    85   ar
    74    80    79    1
    75    62    63    1
    76   109   108    1
    77   109   110    2
    78    46    47   ar
    79   108   107    1
    80    77    78    2
    81    77    76    1
    82    87    85   ar
    83    63    66    1
    84    41    42    1
    85    41    38    1
    86   143   144    1
    87    39    38    1
    88    39    40    2
    89    37    38    1
    90    75    76    1
    91    42    43   ar
    92   169   168    1
    93   144   145    1
    94    76    79    1
    95    66    67    1
    96    66    68    1
    97    47    45   ar
    98   107   102   am
    99   145   146    1
   100   103   102    2
   101   146   147    1
   102    43    45   ar
   103    98    99   ar
   104    98    96   ar
   105   102   101    1
   106   168   165    1
   107    99    97   ar
   108    27    26   ar
   109    27    25   ar
   110    96    94   ar
   111   166   165    1
   112   166   167    2
   113    26    24   ar
   114   165   164    1
   115    25    23   ar
   116    97    95   ar
   117   101   100    1
   118   101   104    1
   119   105   104    1
   120    94    95   ar
   121    94    93    1
   122   155   153   ar
   123   106   104    1
   124    24    22   ar
   125   154   153   ar
   126   164   158   am
   127    23    22   ar
   128    16    14   ar
   129   153   152    1
   130    36    34   ar
   131     8     6   am
   132    22    21    1
   133    93    90    1
   134    14    13    1
   135    14    15   ar
   136   159   158    2
   137    89    90    1
   138   158   157    1
   139    13    10    1
   140    35    34   ar
   141   152   149    1
   142    34    33    1
   143     7     6    2
   144     6     5    1
   145   163   161   ar
   146    90    91    1
   147   162   161   ar
   148   161   160    1
   149    21    18    1
   150    12    11    2
   151   157   156    1
   152   157   160    1
   153   156   150   am
   154   150   151    2
   155   150   149    1
   156    33    32    1
   157    10     9    1
   158    10    11    1
   159    20    19    2
   160     5     2    1
   161   149   148    1
   162    91    92    2
   163    19    18    1
   164    19    28   am
   165    18    17    1
   166     2     3    1
   167     2     1    1
   168    29    28    1
   169    29    32    1
   170    29    30    1
   171    31    30    2
   172     3     4    2
