@<TRIPOS>MOLECULE
tmp/1z4kA00.pdb
 205 203 0 0 0
SMALL
GASTEIGER

@<TRIPOS>ATOM
      1  N         21.5250   39.5100   35.2350 N.3     8  ASN8       -0.1225
      2  CA        20.4640   39.9540   34.3710 C.3     8  ASN8        0.1785
      3  C         19.4430   40.8100   35.1430 C.2     8  ASN8        0.2597
      4  O         19.3990   40.8190   36.3730 O.2     8  ASN8       -0.2718
      5  CB        19.8100   38.7370   33.7360 C.3     8  ASN8        0.1169
      6  CG        18.7690   39.0910   32.7070 C.2     8  ASN8        0.2627
      7  OD1       17.6380   38.5810   32.7740 O.2     8  ASN8       -0.2716
      8  ND2       19.1630   39.9020   31.6510 N.am    8  ASN8       -0.0877
      9  N         18.7010   41.6390   34.4030 N.am    9  MET9       -0.1965
     10  CA        17.7480   42.5440   35.0150 C.3     9  MET9        0.1736
     11  C         16.3370   42.0130   35.0860 C.2     9  MET9        0.2616
     12  O         15.8560   41.6030   36.1480 O.2     9  MET9       -0.2715
     13  CB        17.7920   43.9110   34.3350 C.3     9  MET9        0.0427
     14  CG        17.1830   44.9250   35.1160 C.3     9  MET9        0.0599
     15  SD        17.5450   46.5640   34.2800 S.3     9  MET9       -0.1393
     16  CE        16.7360   47.5230   35.3300 C.3     9  MET9        0.0692
     17  N         15.6130   42.0130   33.9810 N.am   10  ASP10      -0.1957
     18  CA        14.2390   41.5570   34.0360 C.3    10  ASP10       0.1840
     19  C         14.2170   40.0510   34.3490 C.2    10  ASP10       0.2622
     20  O         14.9670   39.2390   33.7880 O.2    10  ASP10      -0.2715
     21  CB        13.5030   41.8330   32.6820 C.3    10  ASP10       0.1450
     22  CG        13.3480   43.2910   32.4390 C.2    10  ASP10       0.3671
     23  OD1       13.0370   43.9760   33.4220 O.co2  10  ASP10      -0.2456
     24  OD2       13.6730   43.8460   31.3830 O.co2  10  ASP10      -0.2456
     25  N         13.3240   39.6830   35.2410 N.am   11  GLY11      -0.1954
     26  CA        13.2030   38.2910   35.6240 C.3    11  GLY11       0.1869
     27  C         14.1850   37.8820   36.6890 C.2    11  GLY11       0.2309
     28  O         14.1010   36.7570   37.1640 O.2    11  GLY11      -0.2863
     29  N          9.3050   41.6350   35.8600 N.3    16  PHE16      -0.1227
     30  CA         8.6720   41.9260   34.5750 C.3    16  PHE16       0.1736
     31  C          7.3390   41.1540   34.4490 C.2    16  PHE16       0.2595
     32  O          6.3050   41.7120   34.0140 O.2    16  PHE16      -0.2718
     33  CB         9.6710   41.4770   33.4770 C.3    16  PHE16       0.0547
     34  CG         9.1760   41.6970   32.0500 C.ar   16  PHE16      -0.0202
     35  CD1        8.2500   40.8410   31.4590 C.ar   16  PHE16      -0.0042
     36  CD2        9.6960   42.7390   31.3030 C.ar   16  PHE16      -0.0042
     37  CE1        7.8230   41.0190   30.1780 C.ar   16  PHE16      -0.0003
     38  CE2        9.2500   42.9250   29.9720 C.ar   16  PHE16      -0.0003
     39  CZ         8.3040   42.0530   29.4270 C.ar   16  PHE16      -0.0000
     40  N          7.3460   39.8780   34.8180 N.am   17  GLU17      -0.1979
     41  CA         6.1260   39.0640   34.6990 C.3    17  GLU17       0.1602
     42  C          4.9460   39.6010   35.5140 C.2    17  GLU17       0.2287
     43  O          3.8300   39.7400   35.0040 O.2    17  GLU17      -0.2864
     44  CB         6.4360   37.6070   35.0660 C.3    17  GLU17       0.0415
     45  CG         7.3380   36.9110   34.0390 C.3    17  GLU17       0.1163
     46  CD         6.6390   36.3290   32.7950 C.2    17  GLU17       0.3649
     47  OE1        5.3710   36.2360   32.7380 O.co2  17  GLU17      -0.2457
     48  OE2        7.4030   35.8970   31.8950 O.co2  17  GLU17      -0.2457
     49  N          9.5780   31.5420   27.5870 N.3    42  PHE42      -0.1227
     50  CA        10.1390   32.8370   27.9260 C.3    42  PHE42       0.1736
     51  C          9.2840   34.0110   27.4190 C.2    42  PHE42       0.2595
     52  O          9.0760   34.9780   28.1480 O.2    42  PHE42      -0.2718
     53  CB        11.5300   32.9530   27.3100 C.3    42  PHE42       0.0547
     54  CG        12.2100   34.2310   27.6520 C.ar   42  PHE42      -0.0202
     55  CD1       12.5890   34.4980   28.9770 C.ar   42  PHE42      -0.0042
     56  CD2       12.4290   35.1940   26.6810 C.ar   42  PHE42      -0.0042
     57  CE1       13.2120   35.6610   29.3170 C.ar   42  PHE42      -0.0003
     58  CE2       13.0250   36.4180   27.0300 C.ar   42  PHE42      -0.0003
     59  CZ        13.4310   36.6350   28.3380 C.ar   42  PHE42      -0.0000
     60  N          8.8280   33.9270   26.1700 N.am   43  TRP43      -0.1962
     61  CA         8.1370   35.0480   25.5300 C.3    43  TRP43       0.1771
     62  C          6.6640   35.1200   25.8940 C.2    43  TRP43       0.2619
     63  O          5.8300   34.2860   25.4410 O.2    43  TRP43      -0.2715
     64  CB         8.3030   35.0090   24.0080 C.3    43  TRP43       0.0590
     65  CG         9.7020   35.0100   23.5400 C.ar   43  TRP43       0.0006
     66  CD1       10.3670   33.9870   22.9100 C.ar   43  TRP43       0.0946
     67  CD2       10.6270   36.0860   23.6330 C.ar   43  TRP43       0.0152
     68  NE1       11.6540   34.3650   22.6190 N.ar   43  TRP43      -0.2442
     69  CE2       11.8450   35.6490   23.0580 C.ar   43  TRP43       0.0810
     70  CE3       10.5730   37.3690   24.1880 C.ar   43  TRP43       0.0012
     71  CZ2       12.9700   36.4620   22.9860 C.ar   43  TRP43       0.0191
     72  CZ3       11.7070   38.1800   24.1030 C.ar   43  TRP43       0.0001
     73  CH2       12.8780   37.7150   23.5350 C.ar   43  TRP43       0.0015
     74  N          6.3490   36.1010   26.7250 N.am   44  VAL44      -0.1963
     75  CA         4.9870   36.3670   27.1450 C.3    44  VAL44       0.1727
     76  C          4.0480   36.4890   25.9280 C.2    44  VAL44       0.2616
     77  O          2.9320   35.9300   25.9170 O.2    44  VAL44      -0.2715
     78  CB         4.9360   37.6780   27.9200 C.3    44  VAL44       0.0290
     79  CG1        3.5110   38.1480   28.1430 C.3    44  VAL44       0.0023
     80  CG2        5.7020   37.5370   29.2690 C.3    44  VAL44       0.0023
     81  N          4.4910   37.2520   24.9390 N.am   45  SER45      -0.1950
     82  CA         3.6190   37.5490   23.7750 C.3    45  SER45       0.1924
     83  C          3.2390   36.2780   23.0260 C.2    45  SER45       0.2314
     84  O          2.1070   36.1790   22.5350 O.2    45  SER45      -0.2863
     85  CB         4.2130   38.5730   22.8190 C.3    45  SER45       0.2116
     86  OG         5.2810   38.0630   22.0710 O.3    45  SER45      -0.2180
     87  N          4.5460   46.5330   27.4680 N.3    63  TRP63      -0.1241
     88  CA         5.9690   46.8180   27.7350 C.3    63  TRP63       0.1605
     89  C          6.5730   47.8940   26.8280 C.2    63  TRP63       0.2264
     90  O          7.6140   48.4490   27.1300 O.2    63  TRP63      -0.2867
     91  CB         6.8530   45.5560   27.7460 C.3    63  TRP63       0.0550
     92  CG         6.8300   44.6410   26.6410 C.ar   63  TRP63       0.0003
     93  CD1        7.4740   44.7740   25.4620 C.ar   63  TRP63       0.0946
     94  CD2        6.1680   43.3840   26.6080 C.ar   63  TRP63       0.0152
     95  NE1        7.2610   43.6680   24.6750 N.ar   63  TRP63      -0.2442
     96  CE2        6.4670   42.7860   25.3550 C.ar   63  TRP63       0.0810
     97  CE3        5.3570   42.6820   27.5210 C.ar   63  TRP63       0.0012
     98  CZ2        5.9890   41.5410   24.9980 C.ar   63  TRP63       0.0191
     99  CZ3        4.8810   41.4360   27.1570 C.ar   63  TRP63       0.0001
    100  CH2        5.1670   40.8960   25.8990 C.ar   63  TRP63       0.0015
    101  N          9.0430   49.8080   32.2920 N.3    69  PHE69      -0.1241
    102  CA        10.2820   49.2880   32.8980 C.3    69  PHE69       0.1605
    103  C         10.6410   50.0340   34.1680 C.2    69  PHE69       0.2264
    104  O         11.1200   49.4070   35.1180 O.2    69  PHE69      -0.2867
    105  CB        11.4690   49.3020   31.8970 C.3    69  PHE69       0.0534
    106  CG        11.3250   48.2960   30.8190 C.ar   69  PHE69      -0.0203
    107  CD1       11.7350   46.9640   31.0330 C.ar   69  PHE69      -0.0042
    108  CD2       10.7340   48.6310   29.5970 C.ar   69  PHE69      -0.0042
    109  CE1       11.5670   45.9960   30.0800 C.ar   69  PHE69      -0.0003
    110  CE2       10.5580   47.6790   28.6450 C.ar   69  PHE69      -0.0003
    111  CZ        11.0010   46.3370   28.8640 C.ar   69  PHE69      -0.0000
    112  N         21.8530   43.2990   30.5110 N.3    97  THR97      -0.1203
    113  CA        20.4230   43.3530   30.1900 C.3    97  THR97       0.1994
    114  C         20.2250   43.7410   28.7550 C.2    97  THR97       0.2619
    115  O         21.0160   44.4830   28.1870 O.2    97  THR97      -0.2717
    116  CB        19.7060   44.3290   31.1770 C.3    97  THR97       0.1784
    117  OG1       18.3130   44.4660   30.9500 O.3    97  THR97      -0.2211
    118  CG2       20.3230   45.7180   31.1290 C.3    97  THR97       0.0376
    119  N         19.1620   43.2020   28.1790 N.am   98  SER98      -0.1938
    120  CA        18.8050   43.4950   26.8080 C.3    98  SER98       0.2040
    121  C         17.6630   44.4560   26.7180 C.2    98  SER98       0.2485
    122  O         16.6430   44.3160   27.4150 O.2    98  SER98      -0.2729
    123  CB        18.4470   42.2150   26.0780 C.3    98  SER98       0.2129
    124  OG        19.5500   41.3180   26.0390 O.3    98  SER98      -0.2179
    125  N         17.7530   45.3990   25.7820 N.am   99  PRO99      -0.2715
    126  CA        16.6080   46.2410   25.5030 C.3    99  PRO99       0.1536
    127  C         15.5890   45.4910   24.6510 C.2    99  PRO99       0.2598
    128  O         15.9660   44.5610   23.9240 O.2    99  PRO99      -0.2715
    129  CB        17.2130   47.3990   24.6780 C.3    99  PRO99       0.0310
    130  CG        18.3390   46.7890   23.9840 C.3    99  PRO99       0.0237
    131  CD        18.9000   45.6630   24.8770 C.3    99  PRO99       0.0939
    132  N         14.3170   45.8750   24.7600 N.am  100  ILE100     -0.1978
    133  CA        13.3080   45.4950   23.7720 C.3   100  ILE100      0.1596
    134  C         13.5960   46.2040   22.4440 C.2   100  ILE100      0.2287
    135  O         14.4570   47.0800   22.3630 O.2   100  ILE100     -0.2864
    136  CB        11.8700   45.8060   24.2620 C.3   100  ILE100      0.0276
    137  CG1       11.6520   47.2720   24.6350 C.3   100  ILE100      0.0022
    138  CG2       11.4670   44.8330   25.3420 C.3   100  ILE100      0.0022
    139  CD1       10.1640   47.6560   24.7240 C.3   100  ILE100      0.0001
    140  N         15.7120   51.6320   32.1740 N.3   110  LYS110     -0.1245
    141  CA        16.5720   50.6340   32.8320 C.3   110  LYS110      0.1561
    142  C         17.7180   51.3370   33.5940 C.2   110  LYS110      0.2260
    143  O         17.9880   50.9990   34.7470 O.2   110  LYS110     -0.2867
    144  CB        17.1230   49.6450   31.8010 C.3   110  LYS110      0.0271
    145  CG        16.0120   48.6950   31.3260 C.3   110  LYS110      0.0035
    146  CD        16.5140   47.5490   30.5250 C.3   110  LYS110      0.0206
    147  CE        15.3700   46.5810   30.3170 C.3   110  LYS110      0.1093
    148  NZ        15.7810   45.2840   30.6370 N.3   110  LYS110     -0.1314
    149  N         21.9910   43.1220   23.1590 N.3   130  ARG130     -0.1245
    150  CA        21.1450   42.0290   22.7010 C.3   130  ARG130      0.1563
    151  C         21.8730   40.7290   22.6060 C.2   130  ARG130      0.2260
    152  O         21.2510   39.6930   22.3550 O.2   130  ARG130     -0.2867
    153  CB        20.5510   42.3660   21.3670 C.3   130  ARG130      0.0307
    154  CG        19.6780   43.6070   21.3920 C.3   130  ARG130      0.0489
    155  CD        18.2520   43.3650   21.7780 C.3   130  ARG130      0.2205
    156  NE        17.5160   42.5690   20.7860 N.pl3 130  ARG130     -0.0865
    157  CZ        16.2420   42.1770   20.9390 C.cat 130  ARG130      0.5346
    158  NH1       15.5340   42.5150   22.0190 N.pl3 130  ARG130      0.1354
    159  NH2       15.6740   41.4550   19.9940 N.pl3 130  ARG130      0.1354
    160  N         24.6120   38.6170   24.7680 N.3   132  LYS132     -0.1245
    161  CA        25.3520   38.4390   26.0050 C.3   132  LYS132      0.1561
    162  C         26.5570   37.5200   25.8170 C.2   132  LYS132      0.2260
    163  O         27.4200   37.4520   26.7010 O.2   132  LYS132     -0.2867
    164  CB        24.4100   37.8490   27.0590 C.3   132  LYS132      0.0271
    165  CG        23.1590   38.7190   27.2820 C.3   132  LYS132      0.0035
    166  CD        22.2480   38.0630   28.2940 C.3   132  LYS132      0.0206
    167  CE        20.8580   38.7420   28.3790 C.3   132  LYS132      0.1093
    168  NZ        19.8130   37.6830   28.3480 N.3   132  LYS132     -0.1314
    169  N         20.7060   34.5200   34.8420 N.3   142  ASP142     -0.1225
    170  CA        19.7530   34.9880   33.8270 C.3   142  ASP142      0.1805
    171  C         18.5690   34.0230   33.7580 C.2   142  ASP142      0.2598
    172  O         18.7410   32.7840   33.7580 O.2   142  ASP142     -0.2718
    173  CB        20.4680   35.0920   32.4730 C.3   142  ASP142      0.1424
    174  CG        19.7430   35.9150   31.4810 C.2   142  ASP142      0.3668
    175  OD1       18.4880   35.7840   31.3220 O.co2 142  ASP142     -0.2456
    176  OD2       20.3700   36.7360   30.7400 O.co2 142  ASP142     -0.2456
    177  N         17.3760   34.5910   33.7340 N.am  143  ASP143     -0.1960
    178  CA        16.1440   33.7940   33.6850 C.3   143  ASP143      0.1840
    179  C         15.8000   33.2190   32.3310 C.2   143  ASP143      0.2621
    180  O         14.9730   32.3150   32.2420 O.2   143  ASP143     -0.2715
    181  CB        14.9640   34.6090   34.2070 C.3   143  ASP143      0.1450
    182  CG        14.6110   35.7750   33.3240 C.2   143  ASP143      0.3671
    183  OD1       15.5410   36.5660   33.0090 O.co2 143  ASP143     -0.2456
    184  OD2       13.4400   36.0130   32.9880 O.co2 143  ASP143     -0.2456
    185  N         16.4110   33.7430   31.2710 N.am  144  ARG144     -0.1977
    186  CA        16.1750   33.2240   29.9340 C.3   144  ARG144      0.1597
    187  C         16.9220   31.9120   29.6770 C.2   144  ARG144      0.2287
    188  O         18.1260   31.8310   29.8400 O.2   144  ARG144     -0.2864
    189  CB        16.5500   34.2710   28.9030 C.3   144  ARG144      0.0334
    190  CG        16.1730   33.8220   27.5380 C.3   144  ARG144      0.0492
    191  CD        16.3360   34.9100   26.5090 C.3   144  ARG144      0.2205
    192  NE        16.1220   34.3570   25.1910 N.pl3 144  ARG144     -0.0865
    193  CZ        16.1640   35.0470   24.0730 C.cat 144  ARG144      0.5346
    194  NH1       16.2980   36.3450   24.0710 N.pl3 144  ARG144      0.1354
    195  NH2       16.1000   34.4060   22.9300 N.pl3 144  ARG144      0.1354
    196  N          8.0160   31.4620   34.1290 N.3   165  HIS165     -0.1241
    197  CA         8.0740   30.9090   32.7900 C.3   165  HIS165      0.1621
    198  C          9.0440   29.7260   32.6340 C.2   165  HIS165      0.2264
    199  O          8.9570   29.0230   31.6520 O.2   165  HIS165     -0.2867
    200  CB         8.3720   32.0280   31.7370 C.3   165  HIS165      0.0745
    201  CG         9.6910   32.7070   31.9640 C.ar  165  HIS165      0.0817
    202  ND1       10.8860   32.0500   31.7950 N.ar  165  HIS165     -0.2268
    203  CD2       10.0030   33.9750   32.2960 C.ar  165  HIS165      0.1154
    204  CE1       11.8740   32.8720   32.0630 C.ar  165  HIS165      0.1986
    205  NE2       11.3680   34.0440   32.3780 N.ar  165  HIS165     -0.2212
@<TRIPOS>BOND
     1   159   157    1
     2   156   157    2
     3   156   155    1
     4   157   158    1
     5   153   154    1
     6   153   150    1
     7   154   155    1
     8    86    85    1
     9   152   151    2
    10   135   134    2
    11   134   133    1
    12    84    83    2
    13   151   150    1
    14    68    66   ar
    15    68    69   ar
    16   150   149    1
    17    85    82    1
    18    66    65   ar
    19   195   193    1
    20    71    69   ar
    21    71    73   ar
    22    83    82    1
    23    69    67   ar
    24    73    72   ar
    25    65    67   ar
    26    65    64    1
    27    67    70   ar
    28   133   136    1
    29   133   132    1
    30    82    81    1
    31   128   127    2
    32   130   129    1
    33   130   131    1
    34    64    61    1
    35   194   193    1
    36   193   192    2
    37    72    70   ar
    38   136   137    1
    39   136   138    1
    40   137   139    1
    41   127   132   am
    42   127   126    1
    43    95    96   ar
    44    95    93   ar
    45   129   126    1
    46   160   161    1
    47   131   125    1
    48    81    76   am
    49    98    96   ar
    50    98   100   ar
    51   192   191    1
    52    96    94   ar
    53    63    62    2
    54    93    92   ar
    55   126   125    1
    56    61    62    1
    57    61    60    1
    58   125   121   am
    59   162   161    1
    60   162   163    2
    61    62    74   am
    62   100    99   ar
    63    77    76    2
    64    76    75    1
    65   161   164    1
    66   124   123    1
    67   123   120    1
    68    60    51   am
    69   191   190    1
    70    94    92   ar
    71    94    97   ar
    72    92    91    1
    73    56    58   ar
    74    56    54   ar
    75   121   120    1
    76   121   122    2
    77    74    75    1
    78   120   119    1
    79    89    90    2
    80    89    88    1
    81    58    59   ar
    82   164   165    1
    83    75    78    1
    84    99    97   ar
    85   165   166    1
    86    53    54    1
    87    53    50    1
    88    51    50    1
    89    51    52    2
    90    87    88    1
    91   190   189    1
    92    49    50    1
    93    54    55   ar
    94    88    91    1
    95    78    79    1
    96    78    80    1
    97   119   114   am
    98   115   114    2
    99   166   167    1
   100    59    57   ar
   101   168   167    1
   102   110   111   ar
   103   110   108   ar
   104   114   113    1
   105   111   109   ar
   106   189   186    1
   107    55    57   ar
   108    39    38   ar
   109    39    37   ar
   110   108   106   ar
   111   187   188    2
   112   187   186    1
   113   186   185    1
   114    38    36   ar
   115   109   107   ar
   116    37    35   ar
   117   113   112    1
   118   113   116    1
   119   147   146    1
   120   147   148    1
   121   146   145    1
   122   176   174   ar
   123   106   107   ar
   124   106   105    1
   125   117   116    1
   126   118   116    1
   127   185   179   am
   128    36    34   ar
   129   175   174   ar
   130   145   144    1
   131    24    22   ar
   132    35    34   ar
   133   174   173    1
   134     8     6   am
   135   199   198    2
   136   200   201    1
   137   200   197    1
   138   202   201   ar
   139   202   204   ar
   140   144   141    1
   141    48    46   ar
   142   105   102    1
   143   201   203   ar
   144    34    33    1
   145   204   205   ar
   146   140   141    1
   147   180   179    2
   148   101   102    1
   149   203   205   ar
   150   179   178    1
   151    22    21    1
   152    22    23   ar
   153   173   170    1
   154   198   197    1
   155    21    18    1
   156     6     7    2
   157     6     5    1
   158    47    46   ar
   159   197   196    1
   160    46    45    1
   161   141   142    1
   162   102   103    1
   163   184   182   ar
   164   183   182   ar
   165   182   181    1
   166    33    30    1
   167   142   143    2
   168   178   177    1
   169   178   181    1
   170   177   171   am
   171     5     2    1
   172   171   172    2
   173   171   170    1
   174    20    19    2
   175   170   169    1
   176    17    18    1
   177    17    11   am
   178    32    31    2
   179    18    19    1
   180    45    44    1
   181   103   104    2
   182    15    14    1
   183    15    16    1
   184    13    10    1
   185    13    14    1
   186    19    25   am
   187     2     3    1
   188     2     1    1
   189     9    10    1
   190     9     3   am
   191    31    30    1
   192    31    40   am
   193    30    29    1
   194    41    40    1
   195    41    44    1
   196    41    42    1
   197    43    42    2
   198    10    11    1
   199    11    12    2
   200     3     4    2
   201    25    26    1
   202    26    27    1
   203    27    28    2
