@<TRIPOS>MOLECULE
tmp/1z4lA00.pdb
 183 180 0 0 0
SMALL
GASTEIGER

@<TRIPOS>ATOM
      1  N         21.6220   39.5670   35.0300 N.3     8  ASN8       -0.1240
      2  CA        20.5380   39.9880   34.1400 C.3     8  ASN8        0.1653
      3  C         19.5170   40.8700   34.8480 C.2     8  ASN8        0.2266
      4  O         19.3800   40.7940   36.0580 O.2     8  ASN8       -0.2867
      5  CB        19.9130   38.7470   33.5090 C.3     8  ASN8        0.1155
      6  CG        18.8470   39.0470   32.4870 C.2     8  ASN8        0.2627
      7  OD1       17.7910   38.3870   32.4670 O.2     8  ASN8       -0.2716
      8  ND2       19.1690   39.9630   31.5190 N.am    8  ASN8       -0.0877
      9  N         15.8880   42.0630   33.5180 N.3    10  ASP10      -0.1239
     10  CA        14.4990   41.5900   33.4960 C.3    10  ASP10       0.1674
     11  C         14.4430   40.0820   33.8130 C.2    10  ASP10       0.2266
     12  O         15.1230   39.2490   33.1730 O.2    10  ASP10      -0.2867
     13  CB        13.9120   41.8110   32.1010 C.3    10  ASP10       0.1410
     14  CG        13.8430   43.2620   31.7500 C.2    10  ASP10       0.3668
     15  OD1       13.1080   43.9760   32.4850 O.co2  10  ASP10      -0.2456
     16  OD2       14.5300   43.7500   30.8220 O.co2  10  ASP10      -0.2456
     17  N          9.5960   41.6400   35.4630 N.3    16  PHE16      -0.1227
     18  CA         8.9940   41.8070   34.1450 C.3    16  PHE16       0.1736
     19  C          7.6780   41.0240   34.0330 C.2    16  PHE16       0.2595
     20  O          6.6700   41.5620   33.5830 O.2    16  PHE16      -0.2718
     21  CB         9.9880   41.3170   33.0970 C.3    16  PHE16       0.0547
     22  CG         9.5620   41.5850   31.6840 C.ar   16  PHE16      -0.0202
     23  CD1        8.6630   40.7410   31.0290 C.ar   16  PHE16      -0.0042
     24  CD2       10.0040   42.7300   31.0310 C.ar   16  PHE16      -0.0042
     25  CE1        8.2960   41.0090   29.7150 C.ar   16  PHE16      -0.0003
     26  CE2        9.5870   42.9990   29.7210 C.ar   16  PHE16      -0.0003
     27  CZ         8.7630   42.1220   29.0850 C.ar   16  PHE16      -0.0000
     28  N          7.6730   39.7830   34.4950 N.am   17  GLU17      -0.1979
     29  CA         6.4980   38.9240   34.2930 C.3    17  GLU17       0.1602
     30  C          5.2710   39.4260   35.0490 C.2    17  GLU17       0.2287
     31  O          4.1720   39.5390   34.4940 O.2    17  GLU17      -0.2864
     32  CB         6.8680   37.4780   34.6240 C.3    17  GLU17       0.0415
     33  CG         7.9180   36.9020   33.7090 C.3    17  GLU17       0.1163
     34  CD         7.3460   36.3700   32.4180 C.2    17  GLU17       0.3649
     35  OE1        6.0950   36.2320   32.2800 O.co2  17  GLU17      -0.2457
     36  OE2        8.1620   36.0160   31.5720 O.co2  17  GLU17      -0.2457
     37  N         10.5750   31.5280   27.1320 N.3    42  PHE42      -0.1227
     38  CA        11.0120   32.8910   27.3500 C.3    42  PHE42       0.1736
     39  C         10.0090   33.9140   26.8240 C.2    42  PHE42       0.2595
     40  O          9.7270   34.8760   27.5050 O.2    42  PHE42      -0.2718
     41  CB        12.3560   33.1160   26.6700 C.3    42  PHE42       0.0547
     42  CG        12.9080   34.5080   26.8390 C.ar   42  PHE42      -0.0202
     43  CD1       13.4860   34.9140   28.0470 C.ar   42  PHE42      -0.0042
     44  CD2       12.8800   35.3960   25.7990 C.ar   42  PHE42      -0.0042
     45  CE1       13.9740   36.1940   28.1730 C.ar   42  PHE42      -0.0003
     46  CE2       13.3550   36.6650   25.9220 C.ar   42  PHE42      -0.0003
     47  CZ        13.9200   37.0600   27.1380 C.ar   42  PHE42      -0.0000
     48  N          9.5310   33.7430   25.5920 N.am   43  TRP43      -0.1962
     49  CA         8.8230   34.8250   24.9050 C.3    43  TRP43       0.1771
     50  C          7.3750   34.9120   25.2790 C.2    43  TRP43       0.2619
     51  O          6.5850   34.0390   24.8920 O.2    43  TRP43      -0.2715
     52  CB         8.9630   34.7410   23.3700 C.3    43  TRP43       0.0590
     53  CG        10.3450   34.7410   22.8830 C.ar   43  TRP43       0.0006
     54  CD1       11.0990   33.6670   22.5400 C.ar   43  TRP43       0.0946
     55  CD2       11.1510   35.8870   22.6440 C.ar   43  TRP43       0.0152
     56  NE1       12.3460   34.0730   22.1350 N.ar   43  TRP43      -0.2442
     57  CE2       12.3900   35.4420   22.1730 C.ar   43  TRP43       0.0810
     58  CE3       10.9380   37.2520   22.7690 C.ar   43  TRP43       0.0012
     59  CZ2       13.4260   36.3080   21.8650 C.ar   43  TRP43       0.0191
     60  CZ3       11.9540   38.1200   22.4550 C.ar   43  TRP43       0.0001
     61  CH2       13.2000   37.6350   22.0090 C.ar   43  TRP43       0.0015
     62  N          7.0250   35.9720   26.0160 N.am   44  VAL44      -0.1963
     63  CA         5.6540   36.2780   26.3490 C.3    44  VAL44       0.1727
     64  C          4.8450   36.4530   25.0610 C.2    44  VAL44       0.2616
     65  O          3.7390   35.9300   24.9470 O.2    44  VAL44      -0.2715
     66  CB         5.5340   37.5350   27.2040 C.3    44  VAL44       0.0290
     67  CG1        4.0870   38.0070   27.3190 C.3    44  VAL44       0.0023
     68  CG2        6.0410   37.2720   28.6290 C.3    44  VAL44       0.0023
     69  N          5.3920   37.2170   24.1110 N.am   45  SER45      -0.1950
     70  CA         4.6110   37.6010   22.9390 C.3    45  SER45       0.1924
     71  C          4.2070   36.3190   22.1990 C.2    45  SER45       0.2314
     72  O          3.0620   36.2340   21.7240 O.2    45  SER45      -0.2863
     73  CB         5.4250   38.5100   22.0250 C.3    45  SER45       0.2116
     74  OG         6.6100   37.8850   21.6090 O.3    45  SER45      -0.2180
     75  N          4.8890   46.6190   26.8890 N.3    63  TRP63      -0.1241
     76  CA         6.2810   46.9740   27.2000 C.3    63  TRP63       0.1605
     77  C          6.8840   48.0650   26.3460 C.2    63  TRP63       0.2264
     78  O          7.9400   48.6210   26.6950 O.2    63  TRP63      -0.2867
     79  CB         7.1630   45.7500   27.2340 C.3    63  TRP63       0.0550
     80  CG         7.2450   44.8300   26.0870 C.ar   63  TRP63       0.0003
     81  CD1        7.9030   45.0390   24.9050 C.ar   63  TRP63       0.0946
     82  CD2        6.6960   43.4930   26.0090 C.ar   63  TRP63       0.0152
     83  NE1        7.8070   43.9190   24.1110 N.ar   63  TRP63      -0.2442
     84  CE2        7.0850   42.9510   24.7700 C.ar   63  TRP63       0.0810
     85  CE3        5.9340   42.7070   26.8680 C.ar   63  TRP63       0.0012
     86  CZ2        6.7160   41.6520   24.3540 C.ar   63  TRP63       0.0191
     87  CZ3        5.5830   41.4320   26.4730 C.ar   63  TRP63       0.0001
     88  CH2        5.9660   40.9060   25.2410 C.ar   63  TRP63       0.0015
     89  N          9.0530   49.8760   31.8960 N.3    69  PHE69      -0.1241
     90  CA        10.3070   49.4090   32.5010 C.3    69  PHE69       0.1605
     91  C         10.5430   50.0960   33.8360 C.2    69  PHE69       0.2264
     92  O         10.9570   49.4390   34.8070 O.2    69  PHE69      -0.2867
     93  CB        11.4980   49.5420   31.5840 C.3    69  PHE69       0.0534
     94  CG        11.4940   48.5120   30.4860 C.ar   69  PHE69      -0.0203
     95  CD1       11.9700   47.2210   30.7050 C.ar   69  PHE69      -0.0042
     96  CD2       10.9360   48.8010   29.2430 C.ar   69  PHE69      -0.0042
     97  CE1       11.9360   46.2640   29.7050 C.ar   69  PHE69      -0.0003
     98  CE2       10.8910   47.8600   28.2770 C.ar   69  PHE69      -0.0003
     99  CZ        11.3730   46.5710   28.4940 C.ar   69  PHE69      -0.0000
    100  N         21.7910   43.7030   30.3950 N.3    97  THR97      -0.1203
    101  CA        20.3910   43.7750   30.0360 C.3    97  THR97       0.1994
    102  C         20.1980   44.0500   28.5580 C.2    97  THR97       0.2619
    103  O         20.9760   44.8280   27.9820 O.2    97  THR97      -0.2717
    104  CB        19.6920   44.8550   30.9170 C.3    97  THR97       0.1784
    105  OG1       18.2950   44.9630   30.6060 O.3    97  THR97      -0.2211
    106  CG2       20.3060   46.1870   30.7800 C.3    97  THR97       0.0376
    107  N         19.1820   43.4110   27.9810 N.am   98  SER98      -0.1938
    108  CA        18.8090   43.6110   26.5720 C.3    98  SER98       0.2040
    109  C         17.6440   44.5470   26.4530 C.2    98  SER98       0.2485
    110  O         16.6110   44.3530   27.0990 O.2    98  SER98      -0.2729
    111  CB        18.4750   42.2910   25.8940 C.3    98  SER98       0.2129
    112  OG        19.5940   41.4210   25.9960 O.3    98  SER98      -0.2179
    113  N         17.7690   45.6000   25.6600 N.am   99  PRO99      -0.2715
    114  CA        16.6450   46.5070   25.4460 C.3    99  PRO99       0.1536
    115  C         15.6960   45.9540   24.3580 C.2    99  PRO99       0.2598
    116  O         16.0970   45.0350   23.5870 O.2    99  PRO99      -0.2715
    117  CB        17.3390   47.7890   24.9910 C.3    99  PRO99       0.0310
    118  CG        18.4990   47.3020   24.1490 C.3    99  PRO99       0.0237
    119  CD        18.9660   46.0090   24.8930 C.3    99  PRO99       0.0939
    120  N         14.4690   46.4500   24.3130 N.am  100  ILE100     -0.1978
    121  CA        13.5730   46.1700   23.1660 C.3   100  ILE100      0.1596
    122  C         14.0010   46.9350   21.9240 C.2   100  ILE100      0.2287
    123  O         14.8920   47.7790   21.9770 O.2   100  ILE100     -0.2864
    124  CB        12.1060   46.4330   23.5210 C.3   100  ILE100      0.0276
    125  CG1       11.8600   47.8310   24.1040 C.3   100  ILE100      0.0022
    126  CG2       11.6470   45.3900   24.5140 C.3   100  ILE100      0.0022
    127  CD1       10.4050   48.1750   24.2100 C.3   100  ILE100      0.0001
    128  N         15.6620   52.0740   32.0850 N.3   110  LYS110     -0.1245
    129  CA        16.5270   51.0650   32.7160 C.3   110  LYS110      0.1561
    130  C         17.6320   51.7440   33.5380 C.2   110  LYS110      0.2260
    131  O         17.8950   51.3730   34.6790 O.2   110  LYS110     -0.2867
    132  CB        17.0500   50.1130   31.6470 C.3   110  LYS110      0.0271
    133  CG        16.0490   49.1720   31.1710 C.3   110  LYS110      0.0035
    134  CD        16.6750   48.2040   30.1070 C.3   110  LYS110      0.0206
    135  CE        15.7730   47.0070   29.8710 C.3   110  LYS110      0.1093
    136  NZ        15.7310   46.0380   31.0480 N.3   110  LYS110     -0.1314
    137  N         22.1280   43.4920   23.0600 N.3   130  ARG130     -0.1245
    138  CA        21.3180   42.3480   22.6050 C.3   130  ARG130      0.1563
    139  C         22.0820   41.0530   22.5340 C.2   130  ARG130      0.2260
    140  O         21.4660   39.9940   22.2450 O.2   130  ARG130     -0.2867
    141  CB        20.7360   42.6290   21.2140 C.3   130  ARG130      0.0307
    142  CG        19.7820   43.7760   21.2620 C.3   130  ARG130      0.0489
    143  CD        18.4030   43.4190   21.7080 C.3   130  ARG130      0.2205
    144  NE        17.5730   43.0470   20.5640 N.pl3 130  ARG130     -0.0865
    145  CZ        16.5410   42.2160   20.6230 C.cat 130  ARG130      0.5346
    146  NH1       16.1860   41.6360   21.7750 N.pl3 130  ARG130      0.1354
    147  NH2       15.8480   41.9640   19.5160 N.pl3 130  ARG130      0.1354
    148  N         24.6430   38.8570   24.6770 N.3   132  LYS132     -0.1245
    149  CA        25.3850   38.6710   25.9370 C.3   132  LYS132      0.1561
    150  C         26.6430   37.8170   25.8210 C.2   132  LYS132      0.2260
    151  O         27.4880   37.8160   26.7040 O.2   132  LYS132     -0.2867
    152  CB        24.4350   38.0740   26.9850 C.3   132  LYS132      0.0271
    153  CG        23.1670   38.9070   27.1360 C.3   132  LYS132      0.0035
    154  CD        22.1570   38.1580   27.9880 C.3   132  LYS132      0.0206
    155  CE        20.7480   38.8320   28.0870 C.3   132  LYS132      0.1093
    156  NZ        19.7800   37.6540   28.3170 N.3   132  LYS132     -0.1314
    157  N         20.9210   34.5850   34.7110 N.3   142  ASP142     -0.1225
    158  CA        19.9910   35.0120   33.6860 C.3   142  ASP142      0.1805
    159  C         18.8870   34.0020   33.5570 C.2   142  ASP142      0.2598
    160  O         19.1380   32.8050   33.5760 O.2   142  ASP142     -0.2718
    161  CB        20.7920   35.1570   32.3900 C.3   142  ASP142      0.1424
    162  CG        20.0410   35.8500   31.3000 C.2   142  ASP142      0.3668
    163  OD1       18.8900   35.4280   30.9940 O.co2 142  ASP142     -0.2456
    164  OD2       20.5570   36.8590   30.7290 O.co2 142  ASP142     -0.2456
    165  N         17.6540   34.4810   33.4830 N.am  143  ASP143     -0.1960
    166  CA        16.4400   33.6130   33.4420 C.3   143  ASP143      0.1840
    167  C         16.1300   33.0400   32.0650 C.2   143  ASP143      0.2621
    168  O         15.2650   32.1900   31.9310 O.2   143  ASP143     -0.2715
    169  CB        15.2020   34.3360   33.9490 C.3   143  ASP143      0.1450
    170  CG        14.8230   35.5130   33.0970 C.2   143  ASP143      0.3671
    171  OD1       15.7190   36.3960   32.9630 O.co2 143  ASP143     -0.2456
    172  OD2       13.6830   35.6120   32.5760 O.co2 143  ASP143     -0.2456
    173  N         16.8300   33.4720   31.0140 N.am  144  ARG144     -0.1977
    174  CA        16.5640   32.8970   29.6950 C.3   144  ARG144      0.1597
    175  C         17.3710   31.6250   29.4290 C.2   144  ARG144      0.2287
    176  O         18.5870   31.6520   29.5120 O.2   144  ARG144     -0.2864
    177  CB        16.9110   33.9150   28.6100 C.3   144  ARG144      0.0334
    178  CG        16.5970   33.4440   27.2620 C.3   144  ARG144      0.0492
    179  CD        16.7140   34.5450   26.2030 C.3   144  ARG144      0.2205
    180  NE        16.4520   33.9840   24.8680 N.pl3 144  ARG144     -0.0865
    181  CZ        16.4120   34.7040   23.7520 C.cat 144  ARG144      0.5346
    182  NH1       16.5640   36.0320   23.7930 N.pl3 144  ARG144      0.1354
    183  NH2       16.2160   34.0870   22.5870 N.pl3 144  ARG144      0.1354
@<TRIPOS>BOND
     1   147   145    1
     2   144   145    2
     3   144   143    1
     4   145   146    1
     5   141   142    1
     6   141   138    1
     7   142   143    1
     8    74    73    1
     9    72    71    2
    10    59    61   ar
    11    59    57   ar
    12   122   123    2
    13   122   121    1
    14    61    60   ar
    15    73    70    1
    16    56    57   ar
    17    56    54   ar
    18    57    55   ar
    19    71    70    1
    20   140   139    2
    21    60    58   ar
    22   139   138    1
    23    54    53   ar
    24   183   181    1
    25   138   137    1
    26    55    58   ar
    27    55    53   ar
    28    53    52    1
    29    70    69    1
    30   121   124    1
    31   121   120    1
    32    52    49    1
    33   124   125    1
    34   124   126    1
    35   116   115    2
    36   181   182    1
    37   181   180    2
    38   125   127    1
    39    83    84   ar
    40    83    81   ar
    41    69    64   am
    42   118   119    1
    43   118   117    1
    44   120   115   am
    45    86    84   ar
    46    86    88   ar
    47   115   114    1
    48   148   149    1
    49    84    82   ar
    50   180   179    1
    51    51    50    2
    52   119   113    1
    53    81    80   ar
    54    49    50    1
    55    49    48    1
    56    65    64    2
    57   117   114    1
    58    64    63    1
    59    88    87   ar
    60    50    62   am
    61   114   113    1
    62    48    39   am
    63   113   109   am
    64    44    46   ar
    65    44    42   ar
    66   150   149    1
    67   150   151    2
    68   111   112    1
    69   111   108    1
    70    46    47   ar
    71   149   152    1
    72    82    80   ar
    73    82    85   ar
    74    62    63    1
    75    80    79    1
    76   179   178    1
    77    77    78    2
    78    77    76    1
    79    63    66    1
    80   109   108    1
    81   109   110    2
    82    87    85   ar
    83   108   107    1
    84    41    42    1
    85    41    38    1
    86    39    38    1
    87    39    40    2
    88    42    43   ar
    89    75    76    1
    90   152   153    1
    91    37    38    1
    92   153   154    1
    93    47    45   ar
    94    76    79    1
    95    66    67    1
    96    66    68    1
    97   178   177    1
    98   107   102   am
    99   103   102    2
   100   154   155    1
   101    43    45   ar
   102   155   156    1
   103    98    99   ar
   104    98    96   ar
   105    99    97   ar
   106   102   101    1
   107   177   174    1
   108    27    25   ar
   109    27    26   ar
   110    96    94   ar
   111   175   176    2
   112   175   174    1
   113   174   173    1
   114    97    95   ar
   115    25    23   ar
   116    26    24   ar
   117   135   134    1
   118   135   136    1
   119   101   100    1
   120   101   104    1
   121   134   133    1
   122    94    95   ar
   123    94    93    1
   124   105   104    1
   125   164   162   ar
   126   106   104    1
   127    16    14   ar
   128   163   162   ar
   129   173   167   am
   130    23    22   ar
   131    24    22   ar
   132   133   132    1
   133   162   161    1
   134     8     6   am
   135    36    34   ar
   136    93    90    1
   137   132   129    1
   138    22    21    1
   139    14    13    1
   140    14    15   ar
   141    89    90    1
   142   168   167    2
   143   167   166    1
   144   128   129    1
   145    13    10    1
   146    35    34   ar
   147   161   158    1
   148    34    33    1
   149     7     6    2
   150     6     5    1
   151    90    91    1
   152   172   170   ar
   153   129   130    1
   154   171   170   ar
   155   170   169    1
   156    21    18    1
   157    12    11    2
   158   166   165    1
   159   166   169    1
   160   165   159   am
   161    10     9    1
   162    10    11    1
   163     5     2    1
   164   130   131    2
   165   159   160    2
   166   159   158    1
   167    20    19    2
   168   158   157    1
   169    33    32    1
   170    91    92    2
   171    19    18    1
   172    19    28   am
   173     2     3    1
   174     2     1    1
   175    18    17    1
   176    29    28    1
   177    29    32    1
   178    29    30    1
   179    31    30    2
   180     3     4    2
