@<TRIPOS>MOLECULE
tmp/1z4oB00.pdb
 138 131 0 0 0
SMALL
GASTEIGER

@<TRIPOS>ATOM
      1  N         32.1020  -15.5630   38.3970 N.3     8  ASP8       -0.1239
      2  CA        33.5380  -15.3110   38.4480 C.3     8  ASP8        0.1674
      3  C         34.0020  -16.5990   39.2010 C.2     8  ASP8        0.2266
      4  O         33.1650  -17.3400   39.7480 O.2     8  ASP8       -0.2867
      5  CB        33.9620  -14.1400   39.3250 C.3     8  ASP8        0.1410
      6  CG        35.4750  -13.8670   39.2190 C.2     8  ASP8        0.3668
      7  OD1       36.1080  -14.2460   38.1940 O.co2   8  ASP8       -0.2456
      8  OD2       36.0590  -13.3480   40.1680 O.co2   8  ASP8       -0.2456
      9  N         37.1800  -16.7060   41.5540 N.3    10  ASP10      -0.1239
     10  CA        37.6070  -16.2470   42.8670 C.3    10  ASP10       0.1674
     11  C         36.5500  -15.5000   43.6760 C.2    10  ASP10       0.2266
     12  O         35.9280  -14.5870   43.1680 O.2    10  ASP10      -0.2867
     13  CB        38.8980  -15.4280   42.7770 C.3    10  ASP10       0.1410
     14  CG        40.1550  -16.3100   42.6550 C.2    10  ASP10       0.3668
     15  OD1       40.0790  -17.5380   42.9400 O.co2  10  ASP10      -0.2456
     16  OD2       41.2310  -15.7770   42.2990 O.co2  10  ASP10      -0.2456
     17  N         42.4210  -15.9210   45.3380 N.3    17  ALA17      -0.1245
     18  CA        42.9270  -14.5370   45.1870 C.3    17  ALA17       0.1562
     19  C         44.0620  -14.1080   46.1260 C.2    17  ALA17       0.2260
     20  O         44.8240  -13.1660   45.8170 O.2    17  ALA17      -0.2867
     21  CB        41.8000  -13.5560   45.2690 C.3    17  ALA17       0.0290
     22  N         47.2120  -15.4000   44.6320 N.3    20  HIS20      -0.1241
     23  CA        47.5860  -14.5310   43.5280 C.3    20  HIS20       0.1621
     24  C         48.2970  -13.2900   44.0350 C.2    20  HIS20       0.2264
     25  O         49.3270  -12.8720   43.4670 O.2    20  HIS20      -0.2867
     26  CB        46.3680  -14.0980   42.7080 C.3    20  HIS20       0.0745
     27  CG        45.9500  -15.0860   41.6670 C.ar   20  HIS20       0.0817
     28  ND1       46.7850  -15.4870   40.6400 N.ar   20  HIS20      -0.2268
     29  CD2       44.7570  -15.6890   41.4400 C.ar   20  HIS20       0.1154
     30  CE1       46.1190  -16.2850   39.8210 C.ar   20  HIS20       0.1986
     31  NE2       44.8890  -16.4280   40.2860 N.ar   20  HIS20      -0.2212
     32  N         52.1660  -12.3240   43.2440 N.3    24  TRP24      -0.1241
     33  CA        52.4760  -11.0460   42.6080 C.3    24  TRP24       0.1605
     34  C         53.4260  -10.1740   43.4250 C.2    24  TRP24       0.2264
     35  O         54.3000   -9.4970   42.8660 O.2    24  TRP24      -0.2867
     36  CB        51.2060  -10.2400   42.2900 C.3    24  TRP24       0.0550
     37  CG        50.4090  -10.6910   41.0280 C.ar   24  TRP24       0.0003
     38  CD1       49.0590  -11.0200   40.9700 C.ar   24  TRP24       0.0946
     39  CD2       50.9140  -10.8610   39.6840 C.ar   24  TRP24       0.0152
     40  NE1       48.7120  -11.3860   39.6840 N.ar   24  TRP24      -0.2442
     41  CE2       49.8170  -11.2970   38.8740 C.ar   24  TRP24       0.0810
     42  CE3       52.1860  -10.7040   39.0810 C.ar   24  TRP24       0.0012
     43  CZ2       49.9570  -11.5760   37.4910 C.ar   24  TRP24       0.0191
     44  CZ3       52.3310  -10.9900   37.6930 C.ar   24  TRP24       0.0001
     45  CH2       51.2140  -11.4200   36.9210 C.ar   24  TRP24       0.0015
     46  N         44.3280   -4.6430   41.5250 N.3    44  LEU44      -0.1245
     47  CA        44.7030   -5.8920   40.8730 C.3    44  LEU44       0.1561
     48  C         43.6340   -6.9730   40.9650 C.2    44  LEU44       0.2260
     49  O         43.7300   -8.0120   40.2570 O.2    44  LEU44      -0.2867
     50  CB        46.0010   -6.4540   41.4690 C.3    44  LEU44       0.0270
     51  CG        47.3100   -5.6700   41.3370 C.3    44  LEU44       0.0019
     52  CD1       48.4350   -6.4770   41.9410 C.3    44  LEU44       0.0001
     53  CD2       47.6010   -5.3700   39.8680 C.3    44  LEU44       0.0001
     54  N         40.8760   -9.4180   40.4710 N.3    46  GLY46      -0.1210
     55  CA        40.1880   -9.9840   39.3110 C.3    46  GLY46       0.1956
     56  C         40.6970   -9.5480   37.9310 C.2    46  GLY46       0.2612
     57  O         40.0500   -9.8120   36.9290 O.2    46  GLY46      -0.2717
     58  N         41.8030   -8.8140   37.8950 N.am   47  VAL47      -0.1965
     59  CA        42.4400   -8.3050   36.6550 C.3    47  VAL47       0.1727
     60  C         43.3170   -9.4200   36.0370 C.2    47  VAL47       0.2617
     61  O         43.9490  -10.1860   36.7840 O.2    47  VAL47      -0.2715
     62  CB        43.2720   -7.0440   37.0230 C.3    47  VAL47       0.0290
     63  CG1       44.0480   -6.5110   35.8570 C.3    47  VAL47       0.0023
     64  CG2       42.3560   -5.9520   37.5540 C.3    47  VAL47       0.0023
     65  N         43.3930   -9.5030   34.6940 N.am   48  SER48      -0.1936
     66  CA        44.1640  -10.5710   34.0060 C.3    48  SER48       0.2055
     67  C         45.6750  -10.6580   34.3380 C.2    48  SER48       0.2642
     68  O         46.2320   -9.7050   34.8600 O.2    48  SER48      -0.2714
     69  CB        44.0040  -10.4640   32.4860 C.3    48  SER48       0.2130
     70  OG        44.6470   -9.3000   32.0170 O.3    48  SER48      -0.2179
     71  N         46.3140  -11.7820   33.9960 N.am   49  ARG49      -0.1977
     72  CA        47.7430  -11.9900   34.2630 C.3    49  ARG49       0.1597
     73  C         48.6160  -10.9250   33.6800 C.2    49  ARG49       0.2287
     74  O         49.4580  -10.3460   34.3930 O.2    49  ARG49      -0.2864
     75  CB        48.2180  -13.3290   33.7520 C.3    49  ARG49       0.0334
     76  CG        49.6090  -13.7060   34.2520 C.3    49  ARG49       0.0492
     77  CD        50.0210  -14.9620   33.6110 C.3    49  ARG49       0.2205
     78  NE        49.0670  -16.0430   33.8620 N.pl3  49  ARG49      -0.0865
     79  CZ        49.2160  -17.2800   33.4200 C.cat  49  ARG49       0.5346
     80  NH1       50.2810  -17.6220   32.7100 N.pl3  49  ARG49       0.1354
     81  NH2       48.2700  -18.1630   33.6320 N.pl3  49  ARG49       0.1354
     82  N         47.7880   -7.3750   35.0990 N.3    52  SER52      -0.1217
     83  CA        48.2840   -7.2700   36.4870 C.3    52  SER52       0.1889
     84  C         49.8090   -7.0350   36.5210 C.2    52  SER52       0.2288
     85  O         50.2750   -6.1500   37.2590 O.2    52  SER52      -0.2866
     86  CB        47.9570   -8.5090   37.3090 C.3    52  SER52       0.2089
     87  OG        46.5570   -8.6950   37.4630 O.3    52  SER52      -0.2183
     88  N         55.6930  -16.0870   38.2150 N.3    72  LYS72      -0.1231
     89  CA        54.5550  -15.8590   39.1100 C.3    72  LYS72       0.1693
     90  C         53.5880  -17.0370   39.0150 C.2    72  LYS72       0.2592
     91  O         53.2160  -17.6080   40.0480 O.2    72  LYS72      -0.2718
     92  CB        53.8580  -14.5430   38.7840 C.3    72  LYS72       0.0285
     93  CG        52.7080  -14.2090   39.7420 C.3    72  LYS72       0.0035
     94  CD        51.3600  -14.6120   39.1320 C.3    72  LYS72       0.0206
     95  CE        50.2130  -14.6470   40.1260 C.3    72  LYS72       0.1093
     96  NZ        48.9600  -14.6640   39.3450 N.3    72  LYS72      -0.1314
     97  N         53.2250  -17.4220   37.7860 N.am   73  ASN73      -0.1974
     98  CA        52.3250  -18.5520   37.5580 C.3    73  ASN73       0.1688
     99  C         52.8470  -19.8870   38.1400 C.2    73  ASN73       0.2292
    100  O         52.0870  -20.6110   38.8400 O.2    73  ASN73      -0.2864
    101  CB        52.0120  -18.6880   36.0560 C.3    73  ASN73       0.1181
    102  CG        50.8350  -19.6200   35.7840 C.2    73  ASN73       0.2629
    103  OD1       49.7660  -19.4770   36.3870 O.2    73  ASN73      -0.2716
    104  ND2       51.0460  -20.6140   34.9200 N.am   73  ASN73      -0.0877
    105  N         35.8880  -15.6100   34.4840 N.3   110  SER110     -0.1202
    106  CA        37.1300  -15.4020   35.2340 C.3   110  SER110      0.2020
    107  C         38.2460  -14.9400   34.3230 C.2   110  SER110      0.2619
    108  O         38.4180  -15.4770   33.2320 O.2   110  SER110     -0.2717
    109  CB        37.5830  -16.7040   35.9010 C.3   110  SER110      0.2103
    110  OG        38.8380  -16.5730   36.5570 O.3   110  SER110     -0.2182
    111  N         39.0560  -13.9800   34.7880 N.am  111  ALA111     -0.1965
    112  CA        40.1750  -13.5150   33.9690 C.3   111  ALA111      0.1728
    113  C         41.3790  -14.4410   34.0630 C.2   111  ALA111      0.2617
    114  O         42.3880  -14.2300   33.3580 O.2   111  ALA111     -0.2715
    115  CB        40.5520  -12.0840   34.3290 C.3   111  ALA111      0.0334
    116  N         41.2330  -15.5390   34.8200 N.am  112  SER112     -0.1936
    117  CA        42.3320  -16.4960   35.0350 C.3   112  SER112      0.2055
    118  C         42.4910  -17.5440   33.9570 C.2   112  SER112      0.2643
    119  O         41.5310  -18.2430   33.6540 O.2   112  SER112     -0.2714
    120  CB        42.1480  -17.2190   36.3820 C.3   112  SER112      0.2130
    121  OG        43.1510  -18.2240   36.6050 O.3   112  SER112     -0.2179
    122  N         43.7050  -17.6950   33.4080 N.am  113  LYS113     -0.1963
    123  CA        43.9450  -18.7630   32.4080 C.3   113  LYS113      0.1728
    124  C         44.0090  -20.0970   33.1080 C.2   113  LYS113      0.2616
    125  O         43.9820  -21.1610   32.4690 O.2   113  LYS113     -0.2715
    126  CB        45.2280  -18.5570   31.6080 C.3   113  LYS113      0.0311
    127  CG        45.2180  -17.3500   30.7370 C.3   113  LYS113      0.0038
    128  CD        46.5760  -17.2050   30.0740 C.3   113  LYS113      0.0206
    129  CE        46.7850  -15.7840   29.6210 C.3   113  LYS113      0.1093
    130  NZ        48.0620  -15.6520   28.8840 N.3   113  LYS113     -0.1314
    131  N         44.1350  -20.0410   34.4380 N.am  114  ASN114     -0.1972
    132  CA        44.1440  -21.2510   35.2610 C.3   114  ASN114      0.1688
    133  C         42.7420  -21.6870   35.6480 C.2   114  ASN114      0.2292
    134  O         42.5810  -22.6700   36.3710 O.2   114  ASN114     -0.2864
    135  CB        44.9740  -21.0650   36.5270 C.3   114  ASN114      0.1181
    136  CG        46.4470  -21.2450   36.2850 C.2   114  ASN114      0.2629
    137  OD1       46.9250  -22.3690   36.0310 O.2   114  ASN114     -0.2716
    138  ND2       47.1870  -20.1540   36.3980 N.am  114  ASN114     -0.0877
@<TRIPOS>BOND
     1   130   129    1
     2   129   128    1
     3   128   127    1
     4   127   126    1
     5   126   123    1
     6    70    69    1
     7   123   124    1
     8   123   122    1
     9   125   124    2
    10    69    66    1
    11    80    79    1
    12   124   131   am
    13   108   107    2
    14   114   113    2
    15   122   118   am
    16    79    81    1
    17    79    78    2
    18    77    78    1
    19    77    76    1
    20   119   118    2
    21    73    72    1
    22    73    74    2
    23    75    76    1
    24    75    72    1
    25   118   117    1
    26   112   113    1
    27   112   115    1
    28   112   111    1
    29    71    72    1
    30    71    67   am
    31    66    67    1
    32    66    65    1
    33   113   116   am
    34   107   111   am
    35   107   106    1
    36    67    68    2
    37   131   132    1
    38   105   106    1
    39    65    60   am
    40   116   117    1
    41   104   102   am
    42   117   120    1
    43    82    83    1
    44   106   109    1
    45   132   133    1
    46   132   135    1
    47   133   134    2
    48   102   101    1
    49   102   103    2
    50    63    62    1
    51   109   110    1
    52   137   136    2
    53    60    59    1
    54    60    61    2
    55   101    98    1
    56   136   138   am
    57   136   135    1
    58   120   121    1
    59    83    84    1
    60    83    86    1
    61    84    85    2
    62    59    62    1
    63    59    58    1
    64    45    43   ar
    65    45    44   ar
    66    57    56    2
    67    62    64    1
    68    86    87    1
    69    43    41   ar
    70    98    97    1
    71    98    99    1
    72    44    42   ar
    73    97    90   am
    74    58    56   am
    75    56    55    1
    76    99   100    2
    77     7     6   ar
    78    88    89    1
    79     1     2    1
    80     2     3    1
    81     2     5    1
    82    92    89    1
    83    92    93    1
    84    41    39   ar
    85    41    40   ar
    86    90    89    1
    87    90    91    2
    88    42    39   ar
    89    94    93    1
    90    94    95    1
    91     3     4    2
    92     6     5    1
    93     6     8   ar
    94    55    54    1
    95    96    95    1
    96    39    37   ar
    97    40    38   ar
    98    30    31   ar
    99    30    28   ar
   100    53    51    1
   101    49    48    2
   102    31    29   ar
   103    28    27   ar
   104    47    48    1
   105    47    50    1
   106    47    46    1
   107    38    37   ar
   108    37    36    1
   109    51    50    1
   110    51    52    1
   111    29    27   ar
   112     9    10    1
   113    27    26    1
   114    36    33    1
   115    16    14   ar
   116    33    32    1
   117    33    34    1
   118    14    13    1
   119    14    15   ar
   120    26    23    1
   121    13    10    1
   122    35    34    2
   123    10    11    1
   124    12    11    2
   125    25    24    2
   126    23    24    1
   127    23    22    1
   128    18    21    1
   129    18    17    1
   130    18    19    1
   131    20    19    2
