@<TRIPOS>MOLECULE
tmp/1z4pA00.pdb
 184 178 0 0 0
SMALL
GASTEIGER

@<TRIPOS>ATOM
      1  N         21.5720   39.3520   34.7200 N.3     8  ASN8       -0.1240
      2  CA        20.4960   39.8070   33.8630 C.3     8  ASN8        0.1653
      3  C         19.5070   40.6920   34.6240 C.2     8  ASN8        0.2266
      4  O         19.3390   40.5530   35.8410 O.2     8  ASN8       -0.2867
      5  CB        19.8050   38.5960   33.2530 C.3     8  ASN8        0.1155
      6  CG        18.7440   38.9510   32.2110 C.2     8  ASN8        0.2627
      7  OD1       17.6530   38.3710   32.2240 O.2     8  ASN8       -0.2716
      8  ND2       19.0900   39.8460   31.2380 N.am    8  ASN8       -0.0877
      9  N         15.7490   41.8550   33.3490 N.3    10  ASP10      -0.1239
     10  CA        14.3830   41.4050   33.3100 C.3    10  ASP10       0.1674
     11  C         14.2850   39.8970   33.6200 C.2    10  ASP10       0.2266
     12  O         14.9780   39.0530   33.0210 O.2    10  ASP10      -0.2867
     13  CB        13.8030   41.6670   31.9240 C.3    10  ASP10       0.1410
     14  CG        13.6160   43.1300   31.6460 C.2    10  ASP10       0.3668
     15  OD1       12.9360   43.8250   32.4380 O.co2  10  ASP10      -0.2456
     16  OD2       14.1540   43.6550   30.6600 O.co2  10  ASP10      -0.2456
     17  N          9.5330   41.5330   35.4740 N.3    16  PHE16      -0.1241
     18  CA         8.9580   41.7910   34.1670 C.3    16  PHE16       0.1605
     19  C          7.6440   41.0410   34.0020 C.2    16  PHE16       0.2264
     20  O          6.6600   41.6100   33.5410 O.2    16  PHE16      -0.2867
     21  CB         9.9690   41.3920   33.0750 C.3    16  PHE16       0.0534
     22  CG         9.4550   41.5810   31.6730 C.ar   16  PHE16      -0.0203
     23  CD1        8.6050   40.6400   31.0860 C.ar   16  PHE16      -0.0042
     24  CD2        9.7870   42.7220   30.9480 C.ar   16  PHE16      -0.0042
     25  CE1        8.0900   40.8560   29.7920 C.ar   16  PHE16      -0.0003
     26  CE2        9.2780   42.9400   29.6720 C.ar   16  PHE16      -0.0003
     27  CZ         8.4260   42.0060   29.1000 C.ar   16  PHE16      -0.0000
     28  N         10.0730   31.4660   26.7000 N.3    42  PHE42      -0.1227
     29  CA        10.6490   32.7680   26.9750 C.3    42  PHE42       0.1736
     30  C          9.7560   33.8880   26.4700 C.2    42  PHE42       0.2595
     31  O          9.5660   34.8840   27.1510 O.2    42  PHE42      -0.2718
     32  CB        12.0200   32.8720   26.3030 C.3    42  PHE42       0.0547
     33  CG        12.8040   34.0810   26.7150 C.ar   42  PHE42      -0.0202
     34  CD1       13.2260   34.2230   28.0470 C.ar   42  PHE42      -0.0042
     35  CD2       13.1060   35.0800   25.8030 C.ar   42  PHE42      -0.0042
     36  CE1       13.9580   35.2980   28.4350 C.ar   42  PHE42      -0.0003
     37  CE2       13.8200   36.2050   26.2060 C.ar   42  PHE42      -0.0003
     38  CZ        14.2550   36.3020   27.5390 C.ar   42  PHE42      -0.0000
     39  N          9.2110   33.7290   25.2670 N.am   43  TRP43      -0.1962
     40  CA         8.5860   34.8630   24.5730 C.3    43  TRP43       0.1771
     41  C          7.1340   35.0040   24.9770 C.2    43  TRP43       0.2619
     42  O          6.2880   34.1860   24.6050 O.2    43  TRP43      -0.2715
     43  CB         8.7260   34.7030   23.0600 C.3    43  TRP43       0.0590
     44  CG        10.1460   34.6070   22.5680 C.ar   43  TRP43       0.0006
     45  CD1       10.7170   33.5570   21.9090 C.ar   43  TRP43       0.0946
     46  CD2       11.1640   35.6100   22.6740 C.ar   43  TRP43       0.0152
     47  NE1       12.0290   33.8420   21.6020 N.ar   43  TRP43      -0.2442
     48  CE2       12.3330   35.0930   22.0720 C.ar   43  TRP43       0.0810
     49  CE3       11.2230   36.8750   23.2600 C.ar   43  TRP43       0.0012
     50  CZ2       13.5300   35.8100   22.0070 C.ar   43  TRP43       0.0191
     51  CZ3       12.4240   37.5870   23.2020 C.ar   43  TRP43       0.0001
     52  CH2       13.5550   37.0530   22.5700 C.ar   43  TRP43       0.0015
     53  N          6.8440   36.0620   25.7330 N.am   44  VAL44      -0.1963
     54  CA         5.5160   36.3100   26.2290 C.3    44  VAL44       0.1727
     55  C          4.5130   36.4780   25.0660 C.2    44  VAL44       0.2616
     56  O          3.4120   35.9370   25.1250 O.2    44  VAL44      -0.2715
     57  CB         5.4890   37.5630   27.0870 C.3    44  VAL44       0.0290
     58  CG1        4.0430   37.9410   27.4750 C.3    44  VAL44       0.0023
     59  CG2        6.3780   37.3700   28.3260 C.3    44  VAL44       0.0023
     60  N          4.8850   37.2330   24.0400 N.am   45  SER45      -0.1950
     61  CA         3.9210   37.5440   22.9810 C.3    45  SER45       0.1924
     62  C          3.5660   36.2840   22.1710 C.2    45  SER45       0.2314
     63  O          2.4740   36.2080   21.6460 O.2    45  SER45      -0.2863
     64  CB         4.4060   38.6320   22.0530 C.3    45  SER45       0.2116
     65  OG         5.4590   38.1820   21.2450 O.3    45  SER45      -0.2180
     66  N          2.6860   43.2050   23.1620 N.3    60  ILE60      -0.1245
     67  CA         3.8540   44.0160   22.8110 C.3    60  ILE60       0.1561
     68  C          3.6590   45.4620   23.2320 C.2    60  ILE60       0.2260
     69  O          4.6020   46.1380   23.7540 O.2    60  ILE60      -0.2867
     70  CB         4.1730   43.9050   21.3230 C.3    60  ILE60       0.0252
     71  CG1        4.7230   42.5120   21.0100 C.3    60  ILE60       0.0019
     72  CG2        5.1810   45.0140   20.8670 C.3    60  ILE60       0.0019
     73  CD1        4.6500   42.1600   19.5210 C.3    60  ILE60       0.0001
     74  N          4.7900   46.4420   26.9300 N.3    63  TRP63      -0.1241
     75  CA         6.1990   46.7440   27.1840 C.3    63  TRP63       0.1605
     76  C          6.8190   47.8070   26.3130 C.2    63  TRP63       0.2264
     77  O          7.8620   48.3310   26.6920 O.2    63  TRP63      -0.2867
     78  CB         7.0810   45.5300   27.2230 C.3    63  TRP63       0.0550
     79  CG         7.1870   44.7220   26.0310 C.ar   63  TRP63       0.0003
     80  CD1        7.8740   44.9940   24.8760 C.ar   63  TRP63       0.0946
     81  CD2        6.6420   43.4220   25.8810 C.ar   63  TRP63       0.0152
     82  NE1        7.7470   43.9430   24.0030 N.ar   63  TRP63      -0.2442
     83  CE2        6.9850   42.9660   24.6050 C.ar   63  TRP63       0.0810
     84  CE3        5.8270   42.6240   26.6850 C.ar   63  TRP63       0.0012
     85  CZ2        6.6130   41.7140   24.1450 C.ar   63  TRP63       0.0191
     86  CZ3        5.4280   41.3950   26.2160 C.ar   63  TRP63       0.0001
     87  CH2        5.8190   40.9550   24.9580 C.ar   63  TRP63       0.0015
     88  N          9.1120   49.7790   31.8540 N.3    69  PHE69      -0.1241
     89  CA        10.3490   49.2540   32.4700 C.3    69  PHE69       0.1605
     90  C         10.6260   49.9670   33.7410 C.2    69  PHE69       0.2264
     91  O         11.0160   49.3180   34.7470 O.2    69  PHE69      -0.2867
     92  CB        11.5510   49.3150   31.5070 C.3    69  PHE69       0.0534
     93  CG        11.4500   48.3110   30.4360 C.ar   69  PHE69      -0.0203
     94  CD1       11.7910   46.9850   30.6920 C.ar   69  PHE69      -0.0042
     95  CD2       10.8990   48.6260   29.2080 C.ar   69  PHE69      -0.0042
     96  CE1       11.6340   46.0060   29.7300 C.ar   69  PHE69      -0.0003
     97  CE2       10.7520   47.6500   28.2460 C.ar   69  PHE69      -0.0003
     98  CZ        11.1190   46.3480   28.4990 C.ar   69  PHE69      -0.0000
     99  N         21.7100   43.4440   30.1110 N.3    97  THR97      -0.1203
    100  CA        20.3190   43.4680   29.7180 C.3    97  THR97       0.1994
    101  C         20.1890   43.6760   28.2150 C.2    97  THR97       0.2618
    102  O         20.9950   44.4000   27.6000 O.2    97  THR97      -0.2717
    103  CB        19.5420   44.5560   30.5680 C.3    97  THR97       0.1784
    104  OG1       18.1610   44.6680   30.1540 O.3    97  THR97      -0.2211
    105  CG2       20.0980   45.9110   30.3800 C.3    97  THR97       0.0376
    106  N         19.2310   42.9800   27.6300 N.am   98  SER98      -0.1951
    107  CA        18.9250   43.1120   26.2140 C.3    98  SER98       0.1924
    108  C         17.7220   44.0060   25.9970 C.2    98  SER98       0.2314
    109  O         16.5830   43.6000   26.2130 O.2    98  SER98      -0.2863
    110  CB        18.7440   41.7570   25.5570 C.3    98  SER98       0.2116
    111  OG        19.9720   41.0310   25.7240 O.3    98  SER98      -0.2180
    112  N         14.5930   45.9900   24.3250 N.3   100  ILE100     -0.1231
    113  CA        13.6650   45.6350   23.2320 C.3   100  ILE100      0.1692
    114  C         14.0220   46.4890   21.9970 C.2   100  ILE100      0.2591
    115  O         14.7610   47.4660   22.1080 O.2   100  ILE100     -0.2718
    116  CB        12.2020   45.8520   23.6500 C.3   100  ILE100      0.0266
    117  CG1       11.9600   47.2930   24.1320 C.3   100  ILE100      0.0019
    118  CG2       11.8350   44.9180   24.7980 C.3   100  ILE100      0.0020
    119  CD1       10.5140   47.7080   24.1510 C.3   100  ILE100      0.0001
    120  N         13.4240   46.1660   20.8580 N.am  101  LYS101     -0.1980
    121  CA        13.7560   46.8240   19.5850 C.3   101  LYS101      0.1596
    122  C         13.2930   48.2930   19.5670 C.2   101  LYS101      0.2287
    123  O         14.0110   49.1490   19.0730 O.2   101  LYS101     -0.2864
    124  CB        13.1410   46.0390   18.3870 C.3   101  LYS101      0.0298
    125  CG        13.6170   44.5480   18.2590 C.3   101  LYS101      0.0038
    126  CD        12.4960   43.6440   17.5850 C.3   101  LYS101      0.0206
    127  CE        12.6940   42.1420   17.7090 C.3   101  LYS101      0.1093
    128  NZ        11.7830   41.4190   16.7270 N.3   101  LYS101     -0.1314
    129  N         15.7740   51.7930   31.9270 N.3   110  LYS110     -0.1245
    130  CA        16.6350   50.7940   32.5500 C.3   110  LYS110      0.1561
    131  C         17.7610   51.5040   33.3820 C.2   110  LYS110      0.2260
    132  O         18.0330   51.0930   34.4900 O.2   110  LYS110     -0.2867
    133  CB        17.2110   49.8660   31.4930 C.3   110  LYS110      0.0271
    134  CG        16.1820   48.7890   31.0710 C.3   110  LYS110      0.0035
    135  CD        16.6490   47.8790   29.9800 C.3   110  LYS110      0.0206
    136  CE        15.6130   46.8000   29.7210 C.3   110  LYS110      0.1093
    137  NZ        15.7440   45.7660   30.8490 N.3   110  LYS110     -0.1314
    138  N         22.2320   43.1250   22.8130 N.3   130  ARG130     -0.1245
    139  CA        21.4030   42.0210   22.3510 C.3   130  ARG130      0.1563
    140  C         22.1550   40.7180   22.2300 C.2   130  ARG130      0.2260
    141  O         21.5460   39.6990   21.9500 O.2   130  ARG130     -0.2867
    142  CB        20.7650   42.3610   21.0260 C.3   130  ARG130      0.0307
    143  CG        19.8970   43.5810   21.1680 C.3   130  ARG130      0.0489
    144  CD        18.4960   43.2940   21.4820 C.3   130  ARG130      0.2205
    145  NE        17.7210   42.9770   20.3010 N.pl3 130  ARG130     -0.0865
    146  CZ        16.4710   42.4990   20.3300 C.cat 130  ARG130      0.5346
    147  NH1       15.8450   42.2620   19.1900 N.pl3 130  ARG130      0.1354
    148  NH2       15.8370   42.2580   21.4920 N.pl3 130  ARG130      0.1354
    149  N         24.7350   38.5610   24.4740 N.3   132  LYS132     -0.1245
    150  CA        25.4280   38.3600   25.7340 C.3   132  LYS132      0.1561
    151  C         26.6840   37.5200   25.6180 C.2   132  LYS132      0.2260
    152  O         27.5280   37.5660   26.4930 O.2   132  LYS132     -0.2867
    153  CB        24.4640   37.7080   26.7390 C.3   132  LYS132      0.0271
    154  CG        23.2090   38.6210   27.0530 C.3   132  LYS132      0.0035
    155  CD        22.1130   37.7860   27.7230 C.3   132  LYS132      0.0206
    156  CE        20.7730   38.6130   27.9480 C.3   132  LYS132      0.1093
    157  NZ        19.6600   37.6110   28.0050 N.3   132  LYS132     -0.1314
    158  N         20.8110   34.3910   34.4310 N.3   142  ASP142     -0.1225
    159  CA        19.9070   34.8320   33.4090 C.3   142  ASP142      0.1805
    160  C         18.7860   33.8080   33.3140 C.2   142  ASP142      0.2598
    161  O         19.0280   32.5980   33.3180 O.2   142  ASP142     -0.2718
    162  CB        20.7100   34.9290   32.0720 C.3   142  ASP142      0.1424
    163  CG        20.0040   35.7600   31.0000 C.2   142  ASP142      0.3668
    164  OD1       18.8540   35.4270   30.6510 O.co2 142  ASP142     -0.2456
    165  OD2       20.5250   36.7560   30.4030 O.co2 142  ASP142     -0.2456
    166  N         17.5570   34.2810   33.2090 N.am  143  ASP143     -0.1960
    167  CA        16.3970   33.4030   33.1500 C.3   143  ASP143      0.1840
    168  C         16.0760   32.8270   31.7640 C.2   143  ASP143      0.2621
    169  O         15.2030   32.0020   31.6510 O.2   143  ASP143     -0.2715
    170  CB        15.1850   34.1440   33.6590 C.3   143  ASP143      0.1450
    171  CG        14.8200   35.3380   32.7950 C.2   143  ASP143      0.3671
    172  OD1       15.6720   36.2260   32.6080 O.co2 143  ASP143     -0.2456
    173  OD2       13.7030   35.4910   32.3170 O.co2 143  ASP143     -0.2456
    174  N         16.7500   33.2910   30.7120 N.am  144  ARG144     -0.1977
    175  CA        16.5180   32.7920   29.3640 C.3   144  ARG144      0.1597
    176  C         17.2720   31.4770   29.1850 C.2   144  ARG144      0.2287
    177  O         18.4690   31.4500   29.3990 O.2   144  ARG144     -0.2864
    178  CB        16.9850   33.8010   28.3280 C.3   144  ARG144      0.0334
    179  CG        16.6770   33.3600   26.9130 C.3   144  ARG144      0.0492
    180  CD        16.9620   34.3630   25.8590 C.3   144  ARG144      0.2205
    181  NE        16.6680   33.8290   24.5220 N.pl3 144  ARG144     -0.0865
    182  CZ        16.6430   34.5660   23.4100 C.cat 144  ARG144      0.5346
    183  NH1       16.8540   35.8800   23.4420 N.pl3 144  ARG144      0.1354
    184  NH2       16.4180   33.9790   22.2490 N.pl3 144  ARG144      0.1354
@<TRIPOS>BOND
     1   128   127    1
     2   126   127    1
     3   126   125    1
     4   125   124    1
     5   124   121    1
     6   123   122    2
     7   147   146    1
     8    73    71    1
     9   122   121    1
    10   121   120    1
    11   145   146    2
    12   145   144    1
    13   146   148    1
    14   120   114   am
    15    72    70    1
    16    71    70    1
    17   142   143    1
    18   142   139    1
    19   143   144    1
    20    65    64    1
    21    70    67    1
    22    47    45   ar
    23    47    48   ar
    24    63    62    2
    25    45    44   ar
    26   141   140    2
    27   114   115    2
    28   114   113    1
    29    50    48   ar
    30    50    52   ar
    31    64    61    1
    32    48    46   ar
    33    62    61    1
    34   140   139    1
    35   184   182    1
    36   139   138    1
    37    44    46   ar
    38    44    43    1
    39    52    51   ar
    40    46    49   ar
    41    67    66    1
    42    67    68    1
    43    61    60    1
    44    43    40    1
    45    51    49   ar
    46    68    69    2
    47   113   116    1
    48   113   112    1
    49   182   183    1
    50   182   181    2
    51   116   117    1
    52   116   118    1
    53    82    83   ar
    54    82    80   ar
    55    60    55   am
    56   117   119    1
    57    85    83   ar
    58    85    87   ar
    59   149   150    1
    60   181   180    1
    61    40    41    1
    62    40    39    1
    63    83    81   ar
    64    42    41    2
    65    80    79   ar
    66    87    86   ar
    67    41    53   am
    68    55    56    2
    69    55    54    1
    70    39    30   am
    71   110   111    1
    72   110   107    1
    73   151   150    1
    74   151   152    2
    75    53    54    1
    76   150   153    1
    77    35    37   ar
    78    35    33   ar
    79   180   179    1
    80    81    79   ar
    81    81    84   ar
    82   108   109    2
    83   108   107    1
    84    79    78    1
    85    37    38   ar
    86   107   106    1
    87    86    84   ar
    88    54    57    1
    89    32    33    1
    90    32    29    1
    91    76    77    2
    92    76    75    1
    93    30    29    1
    94    30    31    2
    95    28    29    1
    96    33    34   ar
    97   153   154    1
    98   179   178    1
    99    74    75    1
   100   154   155    1
   101    57    58    1
   102    57    59    1
   103    75    78    1
   104    38    36   ar
   105   102   101    2
   106   106   101   am
   107   155   156    1
   108   156   157    1
   109    34    36   ar
   110   101   100    1
   111    97    98   ar
   112    97    95   ar
   113   178   175    1
   114    98    96   ar
   115    27    26   ar
   116    27    25   ar
   117   176   175    1
   118   176   177    2
   119    95    93   ar
   120   175   174    1
   121    26    24   ar
   122   100    99    1
   123   100   103    1
   124   136   135    1
   125   136   137    1
   126    96    94   ar
   127    25    23   ar
   128   135   134    1
   129   104   103    1
   130   105   103    1
   131   165   163   ar
   132    93    94   ar
   133    93    92    1
   134   164   163   ar
   135    16    14   ar
   136   174   168   am
   137    24    22   ar
   138   163   162    1
   139   134   133    1
   140    23    22   ar
   141     8     6   am
   142   133   130    1
   143    92    89    1
   144    14    13    1
   145    14    15   ar
   146   169   168    2
   147    22    21    1
   148   168   167    1
   149    88    89    1
   150    13    10    1
   151   129   130    1
   152   162   159    1
   153     6     7    2
   154     6     5    1
   155   173   171   ar
   156    89    90    1
   157   130   131    1
   158   172   171   ar
   159   171   170    1
   160    12    11    2
   161    21    18    1
   162   167   166    1
   163   167   170    1
   164   166   160   am
   165     5     2    1
   166    10     9    1
   167    10    11    1
   168   160   161    2
   169   160   159    1
   170   131   132    2
   171   159   158    1
   172    20    19    2
   173    90    91    2
   174     2     3    1
   175     2     1    1
   176    19    18    1
   177    18    17    1
   178     3     4    2
