@<TRIPOS>MOLECULE
tmp/1z4uA00.pdb
 162 152 0 0 0
SMALL
GASTEIGER

@<TRIPOS>ATOM
      1  N        -13.4020   60.6870   42.0770 N.3   194  PHE194     -0.1241
      2  CA       -12.1720   61.1630   42.7050 C.3   194  PHE194      0.1605
      3  C        -12.0860   62.6760   42.8690 C.2   194  PHE194      0.2264
      4  O        -11.1710   63.1880   43.5000 O.2   194  PHE194     -0.2867
      5  CB       -10.9570   60.6260   41.9450 C.3   194  PHE194      0.0534
      6  CG       -10.7100   59.1590   42.1650 C.ar  194  PHE194     -0.0203
      7  CD1      -10.8940   58.2440   41.1380 C.ar  194  PHE194     -0.0042
      8  CD2      -10.2590   58.6960   43.3950 C.ar  194  PHE194     -0.0042
      9  CE1      -10.6270   56.8860   41.3280 C.ar  194  PHE194     -0.0003
     10  CE2       -9.9880   57.3370   43.5940 C.ar  194  PHE194     -0.0003
     11  CZ       -10.1730   56.4320   42.5530 C.ar  194  PHE194     -0.0000
     12  N        -14.2180   65.2620   48.0600 N.3   197  SER197     -0.1203
     13  CA       -13.6270   65.0900   49.3830 C.3   197  SER197      0.2005
     14  C        -14.7150   64.3440   50.1370 C.2   197  SER197      0.2460
     15  O        -15.8380   64.2290   49.6500 O.2   197  SER197     -0.2732
     16  CB       -13.3940   66.4430   50.0540 C.3   197  SER197      0.2103
     17  OG       -14.6150   67.1520   50.2110 O.3   197  SER197     -0.2182
     18  N        -14.4110   63.8290   51.3270 N.am  198  PRO198     -0.2728
     19  CA       -15.4670   63.1150   52.0420 C.3   198  PRO198      0.1401
     20  C        -16.8200   63.8410   52.0520 C.2   198  PRO198      0.2269
     21  O        -17.8330   63.2820   51.6300 O.2   198  PRO198     -0.2865
     22  CB       -14.8660   62.9430   53.4240 C.3   198  PRO198      0.0296
     23  CG       -13.4220   62.6710   53.0940 C.3   198  PRO198      0.0237
     24  CD       -13.1210   63.7100   52.0280 C.3   198  PRO198      0.0939
     25  N        -18.5200   63.6030   48.6760 N.3   201  ARG201     -0.1245
     26  CA       -18.9730   62.2850   48.2470 C.3   201  ARG201      0.1563
     27  C        -20.3020   62.0160   48.9360 C.2   201  ARG201      0.2260
     28  O        -21.2760   61.6220   48.2890 O.2   201  ARG201     -0.2867
     29  CB       -17.9720   61.1870   48.6200 C.3   201  ARG201      0.0307
     30  CG       -18.2730   59.8730   47.8970 C.3   201  ARG201      0.0489
     31  CD       -17.4260   58.7140   48.3760 C.3   201  ARG201      0.2205
     32  NE       -17.8870   57.4570   47.7990 N.pl3 201  ARG201     -0.0865
     33  CZ       -17.7170   57.0990   46.5320 C.cat 201  ARG201      0.5346
     34  NH1      -17.0820   57.8980   45.6890 N.pl3 201  ARG201      0.1354
     35  NH2      -18.1940   55.9400   46.1050 N.pl3 201  ARG201      0.1354
     36  N        -15.1040   54.8160   40.9610 N.3   317  ASN317     -0.1240
     37  CA       -13.7910   55.0410   41.5580 C.3   317  ASN317      0.1653
     38  C        -12.9500   53.8270   41.2180 C.2   317  ASN317      0.2266
     39  O        -12.8690   52.8870   42.0000 O.2   317  ASN317     -0.2867
     40  CB       -13.8620   55.1690   43.0860 C.3   317  ASN317      0.1155
     41  CG       -14.2170   56.5660   43.5480 C.2   317  ASN317      0.2627
     42  OD1      -15.3690   56.9830   43.4870 O.2   317  ASN317     -0.2716
     43  ND2      -13.2210   57.2980   44.0110 N.am  317  ASN317     -0.0877
     44  N        -17.0760   51.7320   47.7610 N.3   367  CYS367     -0.1235
     45  CA       -15.7750   52.2190   48.1990 C.3   367  CYS367      0.1677
     46  C        -15.5980   51.8350   49.6660 C.2   367  CYS367      0.2270
     47  O        -15.0920   52.6090   50.4770 O.2   367  CYS367     -0.2867
     48  CB       -15.6530   53.7350   47.9760 C.3   367  CYS367      0.0956
     49  SG       -15.4720   54.2170   46.2010 S.3   367  CYS367     -0.0801
     50  N        -17.5780   51.6950   52.0360 N.3   369  SER369     -0.1217
     51  CA       -18.2620   52.5050   53.0380 C.3   369  SER369      0.1889
     52  C        -19.7520   52.6280   52.7860 C.2   369  SER369      0.2288
     53  O        -20.2430   52.2870   51.7100 O.2   369  SER369     -0.2866
     54  CB       -17.6620   53.9100   53.0620 C.3   369  SER369      0.2089
     55  OG       -16.2520   53.8540   52.9680 O.3   369  SER369     -0.2183
     56  N        -19.9060   59.1520   56.0300 N.3   385  LEU385     -0.1245
     57  CA       -19.5140   57.8130   55.5730 C.3   385  LEU385      0.1561
     58  C        -18.7510   57.0240   56.6340 C.2   385  LEU385      0.2260
     59  O        -17.9840   57.5870   57.4120 O.2   385  LEU385     -0.2867
     60  CB       -18.6610   57.9240   54.3100 C.3   385  LEU385      0.0270
     61  CG       -19.3780   58.4570   53.0730 C.3   385  LEU385      0.0019
     62  CD1      -18.3940   58.8060   51.9970 C.3   385  LEU385      0.0001
     63  CD2      -20.3360   57.4050   52.5730 C.3   385  LEU385      0.0001
     64  N        -17.7050   52.5420   57.9430 N.3   387  ARG387     -0.1245
     65  CA       -17.5970   51.1420   57.5610 C.3   387  ARG387      0.1563
     66  C        -17.3460   50.3190   58.8090 C.2   387  ARG387      0.2260
     67  O        -17.2080   50.8710   59.8930 O.2   387  ARG387     -0.2867
     68  CB       -16.4260   50.9410   56.6070 C.3   387  ARG387      0.0307
     69  CG       -15.0820   51.3490   57.2080 C.3   387  ARG387      0.0489
     70  CD       -13.9340   50.9190   56.3240 C.3   387  ARG387      0.2205
     71  NE       -13.5330   49.5380   56.5730 N.pl3 387  ARG387     -0.0865
     72  CZ       -12.8640   48.7940   55.6990 C.cat 387  ARG387      0.5346
     73  NH1      -12.5250   49.2930   54.5210 N.pl3 387  ARG387      0.1354
     74  NH2      -12.5400   47.5480   55.9990 N.pl3 387  ARG387      0.1354
     75  N         -5.3950   46.8630   61.6270 N.3   395  ARG395     -0.1245
     76  CA        -4.2090   47.4370   61.0060 C.3   395  ARG395      0.1563
     77  C         -3.6100   48.4880   61.9170 C.2   395  ARG395      0.2260
     78  O         -2.3990   48.5240   62.1010 O.2   395  ARG395     -0.2867
     79  CB        -4.5540   48.0420   59.6450 C.3   395  ARG395      0.0307
     80  CG        -4.7000   47.0000   58.5550 C.3   395  ARG395      0.0489
     81  CD        -5.2520   47.5910   57.2720 C.3   395  ARG395      0.2205
     82  NE        -5.3570   46.5590   56.2410 N.pl3 395  ARG395     -0.0865
     83  CZ        -5.9000   46.7460   55.0430 C.cat 395  ARG395      0.5346
     84  NH1       -6.3920   47.9320   54.7250 N.pl3 395  ARG395      0.1354
     85  NH2       -5.9490   45.7520   54.1640 N.pl3 395  ARG395      0.1354
     86  N         -1.7910   53.5440   57.7470 N.3   408  SER408     -0.1217
     87  CA        -3.1940   53.7240   57.4360 C.3   408  SER408      0.1889
     88  C         -3.9590   54.4250   58.5450 C.2   408  SER408      0.2288
     89  O         -4.9050   55.1530   58.2690 O.2   408  SER408     -0.2866
     90  CB        -3.8370   52.3710   57.1380 C.3   408  SER408      0.2089
     91  OG        -3.6250   51.4720   58.2040 O.3   408  SER408     -0.2183
     92  N         -4.6180   57.8180   57.7020 N.3   411  GLY411     -0.1210
     93  CA        -5.4840   57.9900   56.5530 C.3   411  GLY411      0.1956
     94  C         -6.9140   57.8030   57.0170 C.2   411  GLY411      0.2611
     95  O         -7.7940   58.5780   56.6450 O.2   411  GLY411     -0.2717
     96  N         -7.1400   56.7790   57.8410 N.am  412  ASN412     -0.1974
     97  CA        -8.4680   56.4970   58.3700 C.3   412  ASN412      0.1688
     98  C         -8.9620   57.6680   59.2110 C.2   412  ASN412      0.2292
     99  O        -10.1110   58.1010   59.0680 O.2   412  ASN412     -0.2864
    100  CB        -8.4760   55.2100   59.2120 C.3   412  ASN412      0.1181
    101  CG        -8.3930   53.9440   58.3580 C.2   412  ASN412      0.2629
    102  OD1       -9.0380   53.8430   57.3140 O.2   412  ASN412     -0.2716
    103  ND2       -7.6090   52.9710   58.8080 N.am  412  ASN412     -0.0877
    104  N         -9.9480   60.5110   56.5590 N.3   415  MET415     -0.1230
    105  CA       -11.1180   60.1600   55.7490 C.3   415  MET415      0.1702
    106  C        -12.3870   59.7850   56.5310 C.2   415  MET415      0.2592
    107  O        -13.5030   60.0850   56.0960 O.2   415  MET415     -0.2718
    108  CB       -10.7530   59.0250   54.7890 C.3   415  MET415      0.0401
    109  CG        -9.7350   59.4260   53.7420 C.3   415  MET415      0.0596
    110  SD       -10.2940   60.8100   52.7110 S.3   415  MET415     -0.1393
    111  CE       -10.8720   59.9170   51.2930 C.3   415  MET415      0.0692
    112  N        -12.2100   59.1350   57.6790 N.am  416  TYR416     -0.1976
    113  CA       -13.3350   58.7150   58.5120 C.3   416  TYR416      0.1639
    114  C        -13.3950   59.4580   59.8480 C.2   416  TYR416      0.2290
    115  O        -13.8340   58.9060   60.8510 O.2   416  TYR416     -0.2864
    116  CB       -13.2610   57.2070   58.7880 C.3   416  TYR416      0.0560
    117  CG       -13.3900   56.3300   57.5630 C.ar  416  TYR416     -0.0198
    118  CD1      -12.2690   55.7070   57.0060 C.ar  416  TYR416     -0.0009
    119  CD2      -14.6410   56.0740   56.9880 C.ar  416  TYR416     -0.0009
    120  CE1      -12.3870   54.8480   55.9200 C.ar  416  TYR416      0.0417
    121  CE2      -14.7710   55.2110   55.8950 C.ar  416  TYR416      0.0417
    122  CZ       -13.6390   54.6020   55.3760 C.ar  416  TYR416      0.1957
    123  OH       -13.7550   53.7140   54.3360 O.3   416  TYR416     -0.2866
    124  N         -1.3280   57.6210   52.5270 N.3   447  GLN447     -0.1231
    125  CA        -1.8320   57.7370   51.1670 C.3   447  GLN447      0.1698
    126  C         -3.3140   58.0940   51.1380 C.2   447  GLN447      0.2592
    127  O         -4.0650   57.8000   52.0730 O.2   447  GLN447     -0.2718
    128  CB        -1.5870   56.4400   50.4090 C.3   447  GLN447      0.0381
    129  CG        -0.1230   56.1950   50.1030 C.3   447  GLN447      0.0905
    130  CD         0.1490   54.7690   49.6610 C.2   447  GLN447      0.2608
    131  OE1        1.2430   54.4490   49.2000 O.2   447  GLN447     -0.2717
    132  NE2       -0.8470   53.9030   49.8090 N.am  447  GLN447     -0.0878
    133  N         -3.7150   58.7550   50.0620 N.am  448  ILE448     -0.1966
    134  CA        -5.0930   59.1630   49.8590 C.3   448  ILE448      0.1727
    135  C         -5.3180   59.1230   48.3650 C.2   448  ILE448      0.2616
    136  O         -4.7470   59.9210   47.6280 O.2   448  ILE448     -0.2715
    137  CB        -5.3380   60.5860   50.3930 C.3   448  ILE448      0.0290
    138  CG1       -5.4270   60.5410   51.9150 C.3   448  ILE448      0.0022
    139  CG2       -6.6060   61.1800   49.8000 C.3   448  ILE448      0.0023
    140  CD1       -5.3880   61.8950   52.5480 C.3   448  ILE448      0.0001
    141  N         -6.1410   58.1760   47.9250 N.am  449  TYR449     -0.1960
    142  CA        -6.4310   58.0070   46.5090 C.3   449  TYR449      0.1771
    143  C         -5.1620   57.5510   45.8110 C.2   449  TYR449      0.2620
    144  O         -5.0150   57.7170   44.6030 O.2   449  TYR449     -0.2715
    145  CB        -6.8980   59.3230   45.8770 C.3   449  TYR449      0.0574
    146  CG        -8.3000   59.7720   46.2360 C.ar  449  TYR449     -0.0198
    147  CD1       -8.8870   60.8490   45.5660 C.ar  449  TYR449     -0.0009
    148  CD2       -9.0480   59.1200   47.2210 C.ar  449  TYR449     -0.0009
    149  CE1      -10.1750   61.2640   45.8590 C.ar  449  TYR449      0.0417
    150  CE2      -10.3470   59.5290   47.5230 C.ar  449  TYR449      0.0417
    151  CZ       -10.9020   60.6050   46.8360 C.ar  449  TYR449      0.1957
    152  OH       -12.1810   61.0380   47.1170 O.3   449  TYR449     -0.2866
    153  N         -4.2370   56.9880   46.5790 N.am  450  GLY450     -0.1954
    154  CA        -2.9910   56.5300   45.9950 C.3   450  GLY450      0.1869
    155  C         -1.8270   57.4920   46.1650 C.2   450  GLY450      0.2309
    156  O         -0.7140   57.0620   46.4530 O.2   450  GLY450     -0.2863
    157  N         -3.8660   55.2260   42.6200 N.3   557  SER557     -0.1217
    158  CA        -3.4400   53.9600   43.2110 C.3   557  SER557      0.1889
    159  C         -2.5360   53.1520   42.2940 C.2   557  SER557      0.2288
    160  O         -2.8650   52.8930   41.1410 O.2   557  SER557     -0.2866
    161  CB        -4.6390   53.1230   43.6270 C.3   557  SER557      0.2089
    162  OG        -4.7560   53.1400   45.0390 O.3   557  SER557     -0.2183
@<TRIPOS>BOND
     1    36    37    1
     2     7     9   ar
     3     7     6   ar
     4   160   159    2
     5    38    37    1
     6    38    39    2
     7     9    11   ar
     8    37    40    1
     9     5     6    1
    10     5     2    1
    11     1     2    1
    12     6     8   ar
    13   159   158    1
    14    11    10   ar
    15   157   158    1
    16     2     3    1
    17     3     4    2
    18    40    41    1
    19   158   161    1
    20     8    10   ar
    21    42    41    2
    22    41    43   am
    23   161   162    1
    24   144   143    2
    25   147   149   ar
    26   147   146   ar
    27    34    33    1
    28   143   142    1
    29   143   153   am
    30   149   151   ar
    31   145   146    1
    32   145   142    1
    33   154   155    1
    34   154   153    1
    35    35    33    1
    36   155   156    2
    37    49    48    1
    38   146   148   ar
    39   142   141    1
    40    33    32    2
    41   151   152    1
    42   151   150   ar
    43   148   150   ar
    44   136   135    2
    45    44    45    1
    46    32    31    1
    47    30    31    1
    48    30    29    1
    49   141   135   am
    50    48    45    1
    51    12    13    1
    52    45    46    1
    53    26    29    1
    54    26    25    1
    55    26    27    1
    56    28    27    2
    57   135   134    1
    58   131   130    2
    59    13    16    1
    60    13    14    1
    61    15    14    2
    62   130   132   am
    63   130   129    1
    64    46    47    2
    65   139   137    1
    66   134   133    1
    67   134   137    1
    68    16    17    1
    69   133   126   am
    70   129   128    1
    71    14    18   am
    72   137   138    1
    73   128   125    1
    74   126   125    1
    75   126   127    2
    76   125   124    1
    77   111   110    1
    78    18    24    1
    79    18    19    1
    80    21    20    2
    81    53    52    2
    82   138   140    1
    83    62    61    1
    84    24    23    1
    85    50    51    1
    86    19    20    1
    87    19    22    1
    88    63    61    1
    89   110   109    1
    90    52    51    1
    91    55    54    1
    92    51    54    1
    93    61    60    1
    94    23    22    1
    95   109   108    1
    96    85    83    1
    97    60    57    1
    98   123   122    1
    99    73    72    1
   100    84    83    1
   101   108   105    1
   102    83    82    2
   103   122   121   ar
   104   122   120   ar
   105    57    56    1
   106    57    58    1
   107    72    74    1
   108    72    71    2
   109   105   106    1
   110   105   104    1
   111   121   119   ar
   112   120   118   ar
   113   107   106    2
   114    82    81    1
   115    70    71    1
   116    70    69    1
   117   106   112   am
   118    93    94    1
   119    93    92    1
   120    68    69    1
   121    68    65    1
   122    58    59    2
   123    95    94    2
   124   119   117   ar
   125   118   117   ar
   126    94    96   am
   127    90    87    1
   128    90    91    1
   129    81    80    1
   130   102   101    2
   131    87    86    1
   132    87    88    1
   133    65    64    1
   134    65    66    1
   135   117   116    1
   136   112   113    1
   137    96    97    1
   138    89    88    2
   139   101   103   am
   140   101   100    1
   141    97    98    1
   142    97   100    1
   143   113   116    1
   144   113   114    1
   145    80    79    1
   146    66    67    2
   147    99    98    2
   148    79    76    1
   149   114   115    2
   150    76    75    1
   151    76    77    1
   152    77    78    2
