@<TRIPOS>MOLECULE
tmp/1z4xA03.pdb
 199 191 0 0 0
SMALL
GASTEIGER

@<TRIPOS>ATOM
      1  N        139.1330  -41.3320 -150.5600 N.3    46  ARG46      -0.1231
      2  CA       140.4630  -41.6570 -151.0610 C.3    46  ARG46       0.1694
      3  C        141.2050  -40.4710 -151.6370 C.2    46  ARG46       0.2591
      4  O        140.6630  -39.3750 -151.7620 O.2    46  ARG46      -0.2718
      5  CB       140.3950  -42.7180 -152.1600 C.3    46  ARG46       0.0321
      6  CG       140.1950  -44.1500 -151.7010 C.3    46  ARG46       0.0489
      7  CD       140.7850  -45.0950 -152.7490 C.3    46  ARG46       0.2205
      8  NE       142.2350  -44.9360 -152.8270 N.pl3  46  ARG46      -0.0865
      9  CZ       142.9940  -45.3610 -153.8320 C.cat  46  ARG46       0.5346
     10  NH1      142.4440  -45.9800 -154.8670 N.pl3  46  ARG46       0.1354
     11  NH2      144.3020  -45.1560 -153.8010 N.pl3  46  ARG46       0.1354
     12  N        142.4570  -40.7250 -152.0000 N.am   47  ILE47      -0.1980
     13  CA       143.3300  -39.7390 -152.6160 C.3    47  ILE47       0.1595
     14  C        143.5590  -38.4900 -151.7760 C.2    47  ILE47       0.2287
     15  O        143.1320  -37.3910 -152.1350 O.2    47  ILE47      -0.2864
     16  CB       142.7800  -39.3230 -153.9950 C.3    47  ILE47       0.0276
     17  CG1      142.2300  -40.5530 -154.7260 C.3    47  ILE47       0.0022
     18  CG2      143.8790  -38.6970 -154.8260 C.3    47  ILE47       0.0022
     19  CD1      143.2250  -41.6940 -154.8570 C.3    47  ILE47       0.0001
     20  N        134.5750  -46.0760 -157.3060 N.3    69  GLN69      -0.1245
     21  CA       134.6720  -45.8890 -158.7550 C.3    69  GLN69       0.1566
     22  C        133.5550  -44.9700 -159.2810 C.2    69  GLN69       0.2260
     23  O        132.3830  -45.2560 -159.0690 O.2    69  GLN69      -0.2867
     24  CB       134.5690  -47.2610 -159.4300 C.3    69  GLN69       0.0367
     25  CG       135.2180  -47.3470 -160.7930 C.3    69  GLN69       0.0905
     26  CD       136.6820  -46.9480 -160.7480 C.2    69  GLN69       0.2608
     27  OE1      137.5020  -47.6060 -160.1030 O.2    69  GLN69      -0.2717
     28  NE2      137.0140  -45.8570 -161.4310 N.am   69  GLN69      -0.0878
     29  N        138.9630  -34.4430 -159.5620 N.3   108  LYS108     -0.1231
     30  CA       139.7470  -35.6190 -159.1890 C.3   108  LYS108      0.1693
     31  C        141.2460  -35.3900 -159.1290 C.2   108  LYS108      0.2592
     32  O        141.7570  -34.3450 -159.5470 O.2   108  LYS108     -0.2718
     33  CB       139.4930  -36.7470 -160.1880 C.3   108  LYS108      0.0285
     34  CG       138.0790  -37.2720 -160.2350 C.3   108  LYS108      0.0035
     35  CD       137.7410  -38.0760 -158.9970 C.3   108  LYS108      0.0206
     36  CE       136.6190  -39.0500 -159.2990 C.3   108  LYS108      0.1093
     37  NZ       136.2960  -39.8850 -158.1150 N.3   108  LYS108     -0.1314
     38  N        141.9430  -36.3970 -158.6060 N.am  109  SER109     -0.1952
     39  CA       143.4010  -36.3930 -158.4980 C.3   109  SER109      0.1924
     40  C        143.9300  -35.0480 -157.9950 C.2   109  SER109      0.2314
     41  O        144.9870  -34.5850 -158.4150 O.2   109  SER109     -0.2863
     42  CB       143.9800  -36.7230 -159.8800 C.3   109  SER109      0.2116
     43  OG       145.3210  -37.1690 -159.8080 O.3   109  SER109     -0.2180
     44  N        141.5600  -31.7990 -161.7690 N.3   124  PHE124     -0.1241
     45  CA       141.1730  -31.9160 -163.1660 C.3   124  PHE124      0.1605
     46  C        139.7630  -32.4660 -163.0620 C.2   124  PHE124      0.2264
     47  O        139.4230  -33.0860 -162.0540 O.2   124  PHE124     -0.2867
     48  CB       142.1140  -32.8660 -163.9380 C.3   124  PHE124      0.0534
     49  CG       141.7360  -34.3290 -163.8770 C.ar  124  PHE124     -0.0203
     50  CD1      140.8880  -34.8870 -164.8310 C.ar  124  PHE124     -0.0042
     51  CD2      142.2910  -35.1650 -162.9110 C.ar  124  PHE124     -0.0042
     52  CE1      140.6030  -36.2640 -164.8310 C.ar  124  PHE124     -0.0003
     53  CE2      142.0170  -36.5380 -162.8950 C.ar  124  PHE124     -0.0003
     54  CZ       141.1740  -37.0910 -163.8580 C.ar  124  PHE124     -0.0000
     55  N        139.6460  -43.2770 -166.8540 N.3   130  GLU130     -0.1245
     56  CA       140.9930  -42.7660 -167.0580 C.3   130  GLU130      0.1567
     57  C        141.5940  -43.1510 -168.3990 C.2   130  GLU130      0.2260
     58  O        142.1820  -42.3130 -169.0860 O.2   130  GLU130     -0.2867
     59  CB       141.9100  -43.2450 -165.9280 C.3   130  GLU130      0.0388
     60  CG       143.3880  -43.0250 -166.2040 C.3   130  GLU130      0.1160
     61  CD       144.2650  -43.4000 -165.0300 C.2   130  GLU130      0.3649
     62  OE1      144.0500  -44.4840 -164.4570 O.co2 130  GLU130     -0.2457
     63  OE2      145.1730  -42.6110 -164.6870 O.co2 130  GLU130     -0.2457
     64  N        140.7140  -41.0310 -171.2370 N.3   133  ASP133     -0.1225
     65  CA       141.3770  -39.7330 -171.2720 C.3   133  ASP133      0.1805
     66  C        142.6280  -39.7970 -172.1370 C.2   133  ASP133      0.2597
     67  O        142.9560  -38.8540 -172.8300 O.2   133  ASP133     -0.2718
     68  CB       141.7780  -39.2690 -169.8700 C.3   133  ASP133      0.1424
     69  CG       140.6090  -38.7550 -169.0640 C.2   133  ASP133      0.3668
     70  OD1      139.7260  -38.0960 -169.6490 O.co2 133  ASP133     -0.2456
     71  OD2      140.5780  -38.9950 -167.8410 O.co2 133  ASP133     -0.2456
     72  N        143.3430  -40.9100 -172.1010 N.am  134  TYR134     -0.1976
     73  CA       144.5480  -41.0140 -172.9120 C.3   134  TYR134      0.1639
     74  C        144.2660  -41.1540 -174.4080 C.2   134  TYR134      0.2290
     75  O        145.0400  -40.6690 -175.2320 O.2   134  TYR134     -0.2864
     76  CB       145.4120  -42.1740 -172.4160 C.3   134  TYR134      0.0560
     77  CG       146.0740  -41.8810 -171.0900 C.ar  134  TYR134     -0.0198
     78  CD1      145.3630  -41.9770 -169.8960 C.ar  134  TYR134     -0.0009
     79  CD2      147.3990  -41.4420 -171.0320 C.ar  134  TYR134     -0.0009
     80  CE1      145.9470  -41.6320 -168.6800 C.ar  134  TYR134      0.0417
     81  CE2      147.9930  -41.0940 -169.8240 C.ar  134  TYR134      0.0417
     82  CZ       147.2620  -41.1880 -168.6520 C.ar  134  TYR134      0.1957
     83  OH       147.8280  -40.8070 -167.4580 O.3   134  TYR134     -0.2866
     84  N        147.0630  -34.5560 -165.3040 N.3   171  ASN171     -0.1240
     85  CA       146.5380  -34.7280 -163.9470 C.3   171  ASN171      0.1653
     86  C        147.4860  -34.1750 -162.8920 C.2   171  ASN171      0.2266
     87  O        148.6990  -34.1180 -163.1020 O.2   171  ASN171     -0.2867
     88  CB       146.3810  -36.2090 -163.5800 C.3   171  ASN171      0.1155
     89  CG       145.3900  -36.9450 -164.4340 C.2   171  ASN171      0.2627
     90  OD1      144.7380  -36.3750 -165.3130 O.2   171  ASN171     -0.2716
     91  ND2      145.2630  -38.2390 -164.1730 N.am  171  ASN171     -0.0877
     92  N        151.3770  -35.1150 -164.2280 N.3   189  TYR189     -0.1241
     93  CA       151.7170  -36.2410 -165.0800 C.3   189  TYR189      0.1605
     94  C        150.5750  -36.4530 -166.0630 C.2   189  TYR189      0.2264
     95  O        149.4720  -35.9330 -165.8640 O.2   189  TYR189     -0.2867
     96  CB       151.9900  -37.5090 -164.2580 C.3   189  TYR189      0.0534
     97  CG       150.7690  -38.2310 -163.7360 C.ar  189  TYR189     -0.0201
     98  CD1      149.9680  -37.6730 -162.7430 C.ar  189  TYR189     -0.0009
     99  CD2      150.4350  -39.5000 -164.2170 C.ar  189  TYR189     -0.0009
    100  CE1      148.8660  -38.3590 -162.2320 C.ar  189  TYR189      0.0417
    101  CE2      149.3370  -40.2010 -163.7140 C.ar  189  TYR189      0.0417
    102  CZ       148.5550  -39.6290 -162.7210 C.ar  189  TYR189      0.1957
    103  OH       147.4800  -40.3240 -162.2110 O.3   189  TYR189     -0.2866
    104  N        148.6220  -49.3140 -173.9300 N.3   235  TRP235     -0.1227
    105  CA       147.3750  -49.4830 -173.2010 C.3   235  TRP235      0.1737
    106  C        146.7300  -48.1220 -172.9490 C.2   235  TRP235      0.2595
    107  O        145.5020  -47.9920 -172.9530 O.2   235  TRP235     -0.2718
    108  CB       147.6350  -50.2030 -171.8780 C.3   235  TRP235      0.0564
    109  CG       146.4090  -50.3460 -171.0440 C.ar  235  TRP235      0.0003
    110  CD1      146.0430  -49.5710 -169.9800 C.ar  235  TRP235      0.0946
    111  CD2      145.3640  -51.3080 -171.2170 C.ar  235  TRP235      0.0152
    112  NE1      144.8340  -49.9920 -169.4790 N.ar  235  TRP235     -0.2442
    113  CE2      144.3950  -51.0550 -170.2180 C.ar  235  TRP235      0.0810
    114  CE3      145.1500  -52.3580 -172.1200 C.ar  235  TRP235      0.0012
    115  CZ2      143.2300  -51.8190 -170.0990 C.ar  235  TRP235      0.0191
    116  CZ3      143.9860  -53.1180 -172.0000 C.ar  235  TRP235      0.0001
    117  CH2      143.0420  -52.8430 -170.9950 C.ar  235  TRP235      0.0015
    118  N        147.5640  -47.1070 -172.7260 N.am  236  PHE236     -0.1976
    119  CA       147.0700  -45.7580 -172.5020 C.3   236  PHE236      0.1639
    120  C        147.1990  -44.8990 -173.7610 C.2   236  PHE236      0.2290
    121  O        147.9980  -43.9650 -173.8090 O.2   236  PHE236     -0.2864
    122  CB       147.8170  -45.0880 -171.3420 C.3   236  PHE236      0.0560
    123  CG       147.2170  -45.3590 -169.9840 C.ar  236  PHE236     -0.0200
    124  CD1      145.9980  -46.0230 -169.8550 C.ar  236  PHE236     -0.0042
    125  CD2      147.8640  -44.9300 -168.8330 C.ar  236  PHE236     -0.0042
    126  CE1      145.4390  -46.2520 -168.5930 C.ar  236  PHE236     -0.0003
    127  CE2      147.3130  -45.1520 -167.5700 C.ar  236  PHE236     -0.0003
    128  CZ       146.0990  -45.8160 -167.4510 C.ar  236  PHE236     -0.0000
    129  N        154.2150  -40.3510 -163.5640 N.3   272  ALA272     -0.1231
    130  CA       153.3600  -40.9530 -162.5450 C.3   272  ALA272      0.1694
    131  C        152.9210  -39.8880 -161.5500 C.2   272  ALA272      0.2591
    132  O        153.2700  -38.7150 -161.6880 O.2   272  ALA272     -0.2718
    133  CB       154.1210  -42.0640 -161.8120 C.3   272  ALA272      0.0304
    134  N        152.1480  -40.2970 -160.5500 N.am  273  GLU273     -0.1979
    135  CA       151.7130  -39.3610 -159.5260 C.3   273  GLU273      0.1602
    136  C        152.9940  -38.9200 -158.8330 C.2   273  GLU273      0.2287
    137  O        154.0530  -39.5270 -159.0290 O.2   273  GLU273     -0.2864
    138  CB       150.7900  -40.0370 -158.5110 C.3   273  GLU273      0.0415
    139  CG       149.4820  -40.5550 -159.0810 C.3   273  GLU273      0.1163
    140  CD       148.6740  -41.3230 -158.0510 C.2   273  GLU273      0.3649
    141  OE1      149.2930  -42.0860 -157.2740 O.co2 273  GLU273     -0.2457
    142  OE2      147.4290  -41.1790 -158.0200 O.co2 273  GLU273     -0.2457
    143  N        156.0440  -41.3790 -157.9310 N.3   288  ARG288     -0.1245
    144  CA       155.4980  -42.7070 -157.7290 C.3   288  ARG288      0.1563
    145  C        156.1700  -43.6470 -158.7280 C.2   288  ARG288      0.2260
    146  O        156.4310  -43.2730 -159.8720 O.2   288  ARG288     -0.2867
    147  CB       153.9860  -42.6890 -157.9530 C.3   288  ARG288      0.0307
    148  CG       153.3680  -44.0600 -158.1610 C.3   288  ARG288      0.0489
    149  CD       151.8500  -43.9890 -158.1470 C.3   288  ARG288      0.2205
    150  NE       151.2450  -45.2150 -158.6510 N.pl3 288  ARG288     -0.0865
    151  CZ       149.9440  -45.4870 -158.5850 C.cat 288  ARG288      0.5346
    152  NH1      149.1120  -44.6190 -158.0230 N.pl3 288  ARG288      0.1354
    153  NH2      149.4760  -46.6150 -159.1000 N.pl3 288  ARG288      0.1354
    154  N        155.5010  -46.1990 -160.8950 N.3   290  ASN290     -0.1240
    155  CA       154.4390  -46.8720 -161.6180 C.3   290  ASN290      0.1653
    156  C        155.0330  -47.5710 -162.8410 C.2   290  ASN290      0.2266
    157  O        154.3040  -48.0720 -163.6880 O.2   290  ASN290     -0.2867
    158  CB       153.3810  -45.8440 -162.0440 C.3   290  ASN290      0.1155
    159  CG       151.9720  -46.4100 -162.0340 C.2   290  ASN290      0.2627
    160  OD1      151.5630  -47.0730 -161.0820 O.2   290  ASN290     -0.2716
    161  ND2      151.2170  -46.1290 -163.0860 N.am  290  ASN290     -0.0877
    162  N        153.1050  -50.6300 -165.8710 N.3   342  LEU342     -0.1231
    163  CA       152.1110  -49.5970 -165.6100 C.3   342  LEU342      0.1693
    164  C        151.3510  -50.1030 -164.3880 C.2   342  LEU342      0.2592
    165  O        150.1550  -50.3910 -164.4470 O.2   342  LEU342     -0.2718
    166  CB       151.1520  -49.4360 -166.7910 C.3   342  LEU342      0.0284
    167  CG       150.1550  -48.2760 -166.6900 C.3   342  LEU342      0.0019
    168  CD1      150.9050  -46.9490 -166.5830 C.3   342  LEU342      0.0001
    169  CD2      149.2480  -48.2740 -167.9140 C.3   342  LEU342      0.0001
    170  N        152.0700  -50.2120 -163.2730 N.am  343  THR343     -0.1953
    171  CA       151.5050  -50.7220 -162.0350 C.3   343  THR343      0.1897
    172  C        152.2990  -50.1990 -160.8290 C.2   343  THR343      0.2313
    173  O        153.4800  -49.8610 -160.9500 O.2   343  THR343     -0.2863
    174  CB       151.5460  -52.2690 -162.0430 C.3   343  THR343      0.1794
    175  OG1      150.9790  -52.7800 -160.8330 O.3   343  THR343     -0.2208
    176  CG2      152.9880  -52.7640 -162.1710 C.3   343  THR343      0.0378
    177  N        148.1860  -55.0440 -152.3690 N.3   378  ARG378     -0.1245
    178  CA       148.2030  -53.8030 -151.6060 C.3   378  ARG378      0.1563
    179  C        147.8530  -54.2160 -150.1890 C.2   378  ARG378      0.2260
    180  O        146.7320  -54.0310 -149.7240 O.2   378  ARG378     -0.2867
    181  CB       147.1870  -52.8210 -152.1800 C.3   378  ARG378      0.0307
    182  CG       147.6380  -52.2830 -153.5210 C.3   378  ARG378      0.0489
    183  CD       146.8260  -51.0950 -153.9580 C.3   378  ARG378      0.2205
    184  NE       147.4250  -50.4560 -155.1220 N.pl3 378  ARG378     -0.0865
    185  CZ       146.9450  -49.3610 -155.6940 C.cat 378  ARG378      0.5346
    186  NH1      145.8520  -48.7810 -155.2040 N.pl3 378  ARG378      0.1354
    187  NH2      147.5560  -48.8440 -156.7550 N.pl3 378  ARG378      0.1354
    188  N        147.4360  -45.7560 -150.5870 N.3   406  TYR406     -0.1241
    189  CA       148.4170  -44.6630 -150.5530 C.3   406  TYR406      0.1605
    190  C        148.9130  -44.3020 -149.1610 C.2   406  TYR406      0.2264
    191  O        148.2460  -44.5620 -148.1570 O.2   406  TYR406     -0.2867
    192  CB       147.8400  -43.3910 -151.1830 C.3   406  TYR406      0.0534
    193  CG       147.5180  -43.5100 -152.6470 C.ar  406  TYR406     -0.0201
    194  CD1      147.8800  -44.6430 -153.3700 C.ar  406  TYR406     -0.0009
    195  CD2      146.8770  -42.4710 -153.3200 C.ar  406  TYR406     -0.0009
    196  CE1      147.6190  -44.7390 -154.7270 C.ar  406  TYR406      0.0417
    197  CE2      146.6110  -42.5560 -154.6760 C.ar  406  TYR406      0.0417
    198  CZ       146.9880  -43.6850 -155.3700 C.ar  406  TYR406      0.1957
    199  OH       146.7660  -43.7030 -156.7200 O.3   406  TYR406     -0.2866
@<TRIPOS>BOND
     1    75    74    2
     2    74    73    1
     3   104   105    1
     4   121   120    2
     5   120   119    1
     6   105   106    1
     7   105   108    1
     8   107   106    2
     9   106   118   am
    10    73    76    1
    11    73    72    1
    12    67    66    2
    13   118   119    1
    14   119   122    1
    15    76    77    1
    16    66    72   am
    17    66    65    1
    18   114   116   ar
    19   114   111   ar
    20   116   117   ar
    21   108   109    1
    22   122   123    1
    23    65    64    1
    24    65    68    1
    25   111   109   ar
    26   111   113   ar
    27    77    79   ar
    28    77    78   ar
    29   109   110   ar
    30    79    81   ar
    31   117   115   ar
    32   113   115   ar
    33   113   112   ar
    34   123   124   ar
    35   123   125   ar
    36   110   112   ar
    37    78    80   ar
    38    68    69    1
    39   124   126   ar
    40    81    82   ar
    41    70    69   ar
    42    58    57    2
    43    69    71   ar
    44   125   127   ar
    45    80    82   ar
    46    82    83    1
    47   126   128   ar
    48    57    56    1
    49   169   167    1
    50   127   128   ar
    51    56    55    1
    52    56    59    1
    53   166   167    1
    54   166   163    1
    55   167   168    1
    56    60    59    1
    57    60    61    1
    58    94    95    2
    59    94    93    1
    60   162   163    1
    61   163   164    1
    62    90    89    2
    63    84    85    1
    64    93    96    1
    65    93    92    1
    66    61    63   ar
    67    61    62   ar
    68    52    50   ar
    69    52    54   ar
    70    50    49   ar
    71   165   164    2
    72    89    91   am
    73    89    88    1
    74   164   170   am
    75    96    97    1
    76    99    97   ar
    77    99   101   ar
    78    85    88    1
    79    85    86    1
    80    48    49    1
    81    48    45    1
    82    49    51   ar
    83    54    53   ar
    84    97    98   ar
    85   101   102   ar
    86   157   156    2
    87   129   130    1
    88   170   171    1
    89    45    46    1
    90    45    44    1
    91    87    86    2
    92   161   159   am
    93    46    47    2
    94    51    53   ar
    95   156   155    1
    96    98   100   ar
    97   102   100   ar
    98   102   103    1
    99   130   133    1
   100   130   131    1
   101   176   174    1
   102   158   159    1
   103   158   155    1
   104   174   171    1
   105   174   175    1
   106   171   172    1
   107   159   160    2
   108   132   131    2
   109   155   154    1
   110   131   134   am
   111    28    26   am
   112   173   172    2
   113    25    26    1
   114    25    24    1
   115    26    27    2
   116   134   135    1
   117    34    33    1
   118    34    35    1
   119    33    30    1
   120    42    43    1
   121    42    39    1
   122   146   145    2
   123    29    30    1
   124    32    31    2
   125   135   136    1
   126   135   138    1
   127    24    21    1
   128    36    35    1
   129    36    37    1
   130    22    23    2
   131    22    21    1
   132    30    31    1
   133    31    38   am
   134   153   151    1
   135   139   138    1
   136   139   140    1
   137   137   136    2
   138    21    20    1
   139   145   144    1
   140   150   151    2
   141   150   149    1
   142    38    39    1
   143   151   152    1
   144    39    40    1
   145    41    40    2
   146   148   149    1
   147   148   147    1
   148   140   142   ar
   149   140   141   ar
   150   147   144    1
   151   143   144    1
   152   187   185    1
   153   199   198    1
   154   185   186    1
   155   185   184    2
   156   198   196   ar
   157   198   197   ar
   158   184   183    1
   159    10     9    1
   160    19    17    1
   161    18    16    1
   162   196   194   ar
   163    17    16    1
   164   197   195   ar
   165    16    13    1
   166   183   182    1
   167     9    11    1
   168     9     8    2
   169   182   181    1
   170   194   193   ar
   171   195   193   ar
   172     8     7    1
   173     7     6    1
   174   193   192    1
   175    13    12    1
   176    13    14    1
   177   177   178    1
   178   181   178    1
   179     5     6    1
   180     5     2    1
   181    15    14    2
   182    12     3   am
   183     4     3    2
   184     3     2    1
   185   178   179    1
   186   192   189    1
   187     2     1    1
   188   188   189    1
   189   189   190    1
   190   179   180    2
   191   190   191    2
