@<TRIPOS>MOLECULE
tmp/1z50A03.pdb
 168 158 0 0 0
SMALL
GASTEIGER

@<TRIPOS>ATOM
      1  N        139.6850  -41.5390 -151.0530 N.3    46  ARG46      -0.1231
      2  CA       141.0090  -41.8810 -151.5500 C.3    46  ARG46       0.1694
      3  C        141.7470  -40.6990 -152.1360 C.2    46  ARG46       0.2591
      4  O        141.1800  -39.6270 -152.3190 O.2    46  ARG46      -0.2718
      5  CB       140.9250  -42.9450 -152.6390 C.3    46  ARG46       0.0321
      6  CG       140.7680  -44.3680 -152.1740 C.3    46  ARG46       0.0489
      7  CD       141.3440  -45.2790 -153.2470 C.3    46  ARG46       0.2205
      8  NE       142.7960  -45.1290 -153.3290 N.pl3  46  ARG46      -0.0865
      9  CZ       143.5440  -45.5690 -154.3340 C.cat  46  ARG46       0.5346
     10  NH1      142.9820  -46.1870 -155.3620 N.pl3  46  ARG46       0.1354
     11  NH2      144.8600  -45.4000 -154.3040 N.pl3  46  ARG46       0.1354
     12  N        143.0210  -40.9330 -152.4370 N.am   47  ILE47      -0.1980
     13  CA       143.9060  -39.9460 -153.0490 C.3    47  ILE47       0.1595
     14  C        144.0770  -38.6630 -152.2490 C.2    47  ILE47       0.2287
     15  O        143.5630  -37.6070 -152.6280 O.2    47  ILE47      -0.2864
     16  CB       143.4280  -39.5820 -154.4650 C.3    47  ILE47       0.0276
     17  CG1      143.0640  -40.8570 -155.2200 C.3    47  ILE47       0.0022
     18  CG2      144.5080  -38.8330 -155.2050 C.3    47  ILE47       0.0022
     19  CD1      144.1560  -41.9090 -155.2200 C.3    47  ILE47       0.0001
     20  N        139.6100  -34.5020 -160.0280 N.3   108  LYS108     -0.1231
     21  CA       140.3660  -35.7010 -159.6630 C.3   108  LYS108      0.1693
     22  C        141.8690  -35.5120 -159.6210 C.2   108  LYS108      0.2592
     23  O        142.4000  -34.5140 -160.1160 O.2   108  LYS108     -0.2718
     24  CB       140.0710  -36.8230 -160.6530 C.3   108  LYS108      0.0285
     25  CG       138.6340  -37.2750 -160.7040 C.3   108  LYS108      0.0035
     26  CD       138.2870  -38.1610 -159.5340 C.3   108  LYS108      0.0206
     27  CE       137.1840  -39.1130 -159.9290 C.3   108  LYS108      0.1093
     28  NZ       136.8840  -40.0840 -158.8440 N.3   108  LYS108     -0.1314
     29  N        142.5490  -36.4920 -159.0310 N.am  109  SER109     -0.1952
     30  CA       144.0070  -36.4930 -158.9480 C.3   109  SER109      0.1924
     31  C        144.5230  -35.1440 -158.4350 C.2   109  SER109      0.2314
     32  O        145.5940  -34.6930 -158.8160 O.2   109  SER109     -0.2863
     33  CB       144.5640  -36.7960 -160.3440 C.3   109  SER109      0.2116
     34  OG       145.8700  -37.3320 -160.3030 O.3   109  SER109     -0.2180
     35  N        142.1380  -31.9290 -162.3050 N.3   124  PHE124     -0.1241
     36  CA       141.7490  -32.0330 -163.6980 C.3   124  PHE124      0.1605
     37  C        140.3320  -32.5670 -163.6050 C.2   124  PHE124      0.2264
     38  O        139.9900  -33.2310 -162.6310 O.2   124  PHE124     -0.2867
     39  CB       142.6880  -32.9850 -164.4670 C.3   124  PHE124      0.0534
     40  CG       142.3200  -34.4500 -164.3830 C.ar  124  PHE124     -0.0203
     41  CD1      141.4940  -35.0290 -165.3360 C.ar  124  PHE124     -0.0042
     42  CD2      142.8630  -35.2630 -163.3950 C.ar  124  PHE124     -0.0042
     43  CE1      141.2210  -36.3950 -165.3120 C.ar  124  PHE124     -0.0003
     44  CE2      142.5970  -36.6270 -163.3590 C.ar  124  PHE124     -0.0003
     45  CZ       141.7780  -37.1970 -164.3210 C.ar  124  PHE124     -0.0000
     46  N        140.2500  -43.4280 -167.2900 N.3   130  GLU130     -0.1245
     47  CA       141.6010  -42.9470 -167.5030 C.3   130  GLU130      0.1567
     48  C        142.1690  -43.3140 -168.8590 C.2   130  GLU130      0.2260
     49  O        142.7300  -42.4690 -169.5510 O.2   130  GLU130     -0.2867
     50  CB       142.5240  -43.4830 -166.4070 C.3   130  GLU130      0.0388
     51  CG       143.9960  -43.2650 -166.6970 C.3   130  GLU130      0.1160
     52  CD       144.8610  -43.5250 -165.4960 C.2   130  GLU130      0.3649
     53  OE1      144.6930  -44.6020 -164.8900 O.co2 130  GLU130     -0.2457
     54  OE2      145.7030  -42.6560 -165.1620 O.co2 130  GLU130     -0.2457
     55  N        143.9120  -41.0690 -172.5620 N.3   134  TYR134     -0.1241
     56  CA       145.1240  -41.1830 -173.3610 C.3   134  TYR134      0.1605
     57  C        144.8560  -41.3480 -174.8540 C.2   134  TYR134      0.2264
     58  O        145.6770  -40.9580 -175.6880 O.2   134  TYR134     -0.2867
     59  CB       145.9780  -42.3340 -172.8450 C.3   134  TYR134      0.0534
     60  CG       146.6320  -42.0280 -171.5170 C.ar  134  TYR134     -0.0201
     61  CD1      145.9620  -42.2520 -170.3180 C.ar  134  TYR134     -0.0009
     62  CD2      147.9040  -41.4620 -171.4630 C.ar  134  TYR134     -0.0009
     63  CE1      146.5400  -41.9150 -169.0990 C.ar  134  TYR134      0.0417
     64  CE2      148.4910  -41.1210 -170.2490 C.ar  134  TYR134      0.0417
     65  CZ       147.8030  -41.3500 -169.0720 C.ar  134  TYR134      0.1957
     66  OH       148.3730  -41.0090 -167.8670 O.3   134  TYR134     -0.2866
     67  N        147.6450  -34.7080 -165.7710 N.3   171  ASN171     -0.1240
     68  CA       147.1200  -34.8410 -164.4090 C.3   171  ASN171      0.1653
     69  C        148.0520  -34.2820 -163.3570 C.2   171  ASN171      0.2266
     70  O        149.2590  -34.1890 -163.5690 O.2   171  ASN171     -0.2867
     71  CB       146.9340  -36.3090 -164.0060 C.3   171  ASN171      0.1155
     72  CG       145.9850  -37.0620 -164.8890 C.2   171  ASN171      0.2627
     73  OD1      145.2290  -36.4790 -165.6690 O.2   171  ASN171     -0.2716
     74  ND2      146.0030  -38.3820 -164.7610 N.am  171  ASN171     -0.0877
     75  N        149.0440  -35.6500 -157.5880 N.3   174  THR174     -0.1218
     76  CA       148.3820  -35.9090 -156.3020 C.3   174  THR174      0.1862
     77  C        149.2770  -35.5980 -155.1020 C.2   174  THR174      0.2287
     78  O        148.7810  -35.3020 -154.0170 O.2   174  THR174     -0.2866
     79  CB       147.8480  -37.3620 -156.1550 C.3   174  THR174      0.1770
     80  OG1      148.9080  -38.2390 -155.7700 O.3   174  THR174     -0.2211
     81  CG2      147.2440  -37.8370 -157.4580 C.3   174  THR174      0.0375
     82  N        151.9220  -35.2570 -164.6800 N.3   189  TYR189     -0.1241
     83  CA       152.2930  -36.3750 -165.5360 C.3   189  TYR189      0.1605
     84  C        151.1560  -36.5870 -166.5270 C.2   189  TYR189      0.2264
     85  O        150.0660  -36.0360 -166.3570 O.2   189  TYR189     -0.2867
     86  CB       152.5890  -37.6470 -164.7210 C.3   189  TYR189      0.0534
     87  CG       151.3860  -38.4030 -164.2080 C.ar  189  TYR189     -0.0201
     88  CD1      150.6220  -37.9140 -163.1520 C.ar  189  TYR189     -0.0009
     89  CD2      151.0280  -39.6290 -164.7700 C.ar  189  TYR189     -0.0009
     90  CE1      149.5260  -38.6310 -162.6610 C.ar  189  TYR189      0.0417
     91  CE2      149.9390  -40.3540 -164.2920 C.ar  189  TYR189      0.0417
     92  CZ       149.1910  -39.8520 -163.2370 C.ar  189  TYR189      0.1957
     93  OH       148.1300  -40.5830 -162.7490 O.3   189  TYR189     -0.2866
     94  N        148.1120  -47.2760 -173.2340 N.3   236  PHE236     -0.1241
     95  CA       147.5980  -45.9420 -172.9740 C.3   236  PHE236      0.1605
     96  C        147.6930  -45.0660 -174.2150 C.2   236  PHE236      0.2264
     97  O        148.4540  -44.1020 -174.2570 O.2   236  PHE236     -0.2867
     98  CB       148.3450  -45.2840 -171.8120 C.3   236  PHE236      0.0534
     99  CG       147.7320  -45.5500 -170.4630 C.ar  236  PHE236     -0.0203
    100  CD1      146.4790  -46.1450 -170.3530 C.ar  236  PHE236     -0.0042
    101  CD2      148.3990  -45.1850 -169.3000 C.ar  236  PHE236     -0.0042
    102  CE1      145.9030  -46.3710 -169.1030 C.ar  236  PHE236     -0.0003
    103  CE2      147.8280  -45.4070 -168.0460 C.ar  236  PHE236     -0.0003
    104  CZ       146.5820  -45.9990 -167.9490 C.ar  236  PHE236     -0.0000
    105  N        154.7150  -40.4830 -163.9980 N.3   272  ALA272     -0.1231
    106  CA       153.9120  -41.0700 -162.9290 C.3   272  ALA272      0.1694
    107  C        153.4940  -40.0000 -161.9290 C.2   272  ALA272      0.2591
    108  O        153.8800  -38.8310 -162.0460 O.2   272  ALA272     -0.2718
    109  CB       154.7040  -42.1560 -162.2140 C.3   272  ALA272      0.0304
    110  N        152.6910  -40.4010 -160.9510 N.am  273  GLU273     -0.1979
    111  CA       152.2590  -39.4730 -159.9130 C.3   273  GLU273      0.1602
    112  C        153.5420  -39.0770 -159.2070 C.2   273  GLU273      0.2287
    113  O        154.5500  -39.7810 -159.2980 O.2   273  GLU273     -0.2864
    114  CB       151.3160  -40.1560 -158.9130 C.3   273  GLU273      0.0415
    115  CG       150.0600  -40.7540 -159.5180 C.3   273  GLU273      0.1163
    116  CD       149.2770  -41.5680 -158.5100 C.2   273  GLU273      0.3649
    117  OE1      149.9000  -42.3980 -157.8150 O.co2 273  GLU273     -0.2457
    118  OE2      148.0460  -41.3940 -158.4140 O.co2 273  GLU273     -0.2457
    119  N        156.6260  -41.6170 -158.4350 N.3   288  ARG288     -0.1245
    120  CA       156.0810  -42.9420 -158.2300 C.3   288  ARG288      0.1563
    121  C        156.7620  -43.8830 -159.2140 C.2   288  ARG288      0.2260
    122  O        157.0130  -43.5240 -160.3690 O.2   288  ARG288     -0.2867
    123  CB       154.5660  -42.9180 -158.4620 C.3   288  ARG288      0.0307
    124  CG       153.9050  -44.2860 -158.5510 C.3   288  ARG288      0.0489
    125  CD       152.3910  -44.1590 -158.5950 C.3   288  ARG288      0.2205
    126  NE       151.7630  -45.3430 -159.1680 N.pl3 288  ARG288     -0.0865
    127  CZ       150.4710  -45.6400 -159.0510 C.cat 288  ARG288      0.5346
    128  NH1      149.6640  -44.8380 -158.3690 N.pl3 288  ARG288      0.1354
    129  NH2      149.9770  -46.7330 -159.6240 N.pl3 288  ARG288      0.1354
    130  N        156.1080  -46.3920 -161.3230 N.3   290  ASN290     -0.1240
    131  CA       155.0430  -47.0650 -162.0440 C.3   290  ASN290      0.1653
    132  C        155.6500  -47.7720 -163.2490 C.2   290  ASN290      0.2266
    133  O        154.9320  -48.2950 -164.0940 O.2   290  ASN290     -0.2867
    134  CB       154.0030  -46.0390 -162.5030 C.3   290  ASN290      0.1155
    135  CG       152.5960  -46.6020 -162.5270 C.2   290  ASN290      0.2627
    136  OD1      152.1480  -47.2290 -161.5660 O.2   290  ASN290     -0.2716
    137  ND2      151.8880  -46.3710 -163.6200 N.am  290  ASN290     -0.0877
    138  N        153.7420  -50.8150 -166.2930 N.3   342  LEU342     -0.1245
    139  CA       152.7290  -49.8060 -166.0080 C.3   342  LEU342      0.1561
    140  C        151.9530  -50.3140 -164.7960 C.2   342  LEU342      0.2260
    141  O        150.7500  -50.5700 -164.8640 O.2   342  LEU342     -0.2867
    142  CB       151.7990  -49.6290 -167.2110 C.3   342  LEU342      0.0270
    143  CG       150.7580  -48.5030 -167.1690 C.3   342  LEU342      0.0019
    144  CD1      151.4500  -47.1630 -167.0430 C.3   342  LEU342      0.0001
    145  CD2      149.9210  -48.5390 -168.4340 C.3   342  LEU342      0.0001
    146  N        148.7990  -55.1590 -152.6930 N.3   378  ARG378     -0.1245
    147  CA       148.8310  -53.9210 -151.9250 C.3   378  ARG378      0.1563
    148  C        148.4740  -54.3230 -150.5100 C.2   378  ARG378      0.2260
    149  O        147.3830  -54.0540 -150.0130 O.2   378  ARG378     -0.2867
    150  CB       147.8370  -52.9240 -152.4950 C.3   378  ARG378      0.0307
    151  CG       148.2610  -52.4530 -153.8660 C.3   378  ARG378      0.0489
    152  CD       147.4520  -51.2700 -154.3140 C.3   378  ARG378      0.2205
    153  NE       148.0230  -50.6580 -155.5050 N.pl3 378  ARG378     -0.0865
    154  CZ       147.5320  -49.5660 -156.0730 C.cat 378  ARG378      0.5346
    155  NH1      146.4610  -48.9780 -155.5500 N.pl3 378  ARG378      0.1354
    156  NH2      148.1130  -49.0560 -157.1490 N.pl3 378  ARG378      0.1354
    157  N        147.9960  -45.8900 -151.0280 N.3   406  TYR406     -0.1241
    158  CA       148.9990  -44.8230 -151.0200 C.3   406  TYR406      0.1605
    159  C        149.4820  -44.4580 -149.6260 C.2   406  TYR406      0.2264
    160  O        148.8270  -44.7560 -148.6250 O.2   406  TYR406     -0.2867
    161  CB       148.4460  -43.5520 -151.6590 C.3   406  TYR406      0.0534
    162  CG       148.1500  -43.6310 -153.1290 C.ar  406  TYR406     -0.0201
    163  CD1      148.2320  -44.8370 -153.8270 C.ar  406  TYR406     -0.0009
    164  CD2      147.7910  -42.4880 -153.8310 C.ar  406  TYR406     -0.0009
    165  CE1      147.9610  -44.8910 -155.1970 C.ar  406  TYR406      0.0417
    166  CE2      147.5220  -42.5290 -155.1870 C.ar  406  TYR406      0.0417
    167  CZ       147.6110  -43.7260 -155.8640 C.ar  406  TYR406      0.1957
    168  OH       147.3740  -43.7290 -157.2130 O.3   406  TYR406     -0.2866
@<TRIPOS>BOND
     1    58    57    2
     2    57    56    1
     3    97    96    2
     4    96    95    1
     5    56    59    1
     6    56    55    1
     7    94    95    1
     8    95    98    1
     9    59    60    1
    10    98    99    1
    11    60    62   ar
    12    60    61   ar
    13    62    64   ar
    14    99   100   ar
    15    99   101   ar
    16   100   102   ar
    17    61    63   ar
    18    64    65   ar
    19    49    48    2
    20   101   103   ar
    21   102   104   ar
    22    63    65   ar
    23    65    66    1
    24    48    47    1
    25   145   143    1
    26   103   104   ar
    27    47    46    1
    28    47    50    1
    29   142   143    1
    30   142   139    1
    31   143   144    1
    32    51    50    1
    33    51    52    1
    34    84    85    2
    35    84    83    1
    36   138   139    1
    37   139   140    1
    38    67    68    1
    39    73    72    2
    40    83    86    1
    41    83    82    1
    42    52    54   ar
    43    52    53   ar
    44    41    43   ar
    45    41    40   ar
    46    43    45   ar
    47    72    74   am
    48    72    71    1
    49   141   140    2
    50    89    91   ar
    51    89    87   ar
    52    86    87    1
    53    39    40    1
    54    39    36    1
    55    68    71    1
    56    68    69    1
    57    40    42   ar
    58    45    44   ar
    59    91    92   ar
    60    87    88   ar
    61   133   132    2
    62   105   106    1
    63    36    37    1
    64    36    35    1
    65   137   135   am
    66    37    38    2
    67    70    69    2
    68    42    44   ar
    69   132   131    1
    70    92    93    1
    71    92    90   ar
    72    88    90   ar
    73   106   109    1
    74   106   107    1
    75   135   134    1
    76   135   136    2
    77   134   131    1
    78   108   107    2
    79   131   130    1
    80   107   110   am
    81   110   111    1
    82    25    24    1
    83    25    26    1
    84    24    21    1
    85   122   121    2
    86    33    34    1
    87    33    30    1
    88    23    22    2
    89    20    21    1
    90    27    26    1
    91    27    28    1
    92   111   112    1
    93   111   114    1
    94    21    22    1
    95   129   127    1
    96    22    29   am
    97   115   114    1
    98   115   116    1
    99   113   112    2
   100   121   120    1
   101   126   127    2
   102   126   125    1
   103   127   128    1
   104    29    30    1
   105    30    31    1
   106    32    31    2
   107   125   124    1
   108   124   123    1
   109   116   118   ar
   110   116   117   ar
   111   123   120    1
   112   119   120    1
   113    75    76    1
   114    81    79    1
   115   168   167    1
   116   156   154    1
   117    76    79    1
   118    76    77    1
   119    79    80    1
   120   154   155    1
   121   154   153    2
   122   167   165   ar
   123   167   166   ar
   124   153   152    1
   125    10     9    1
   126    19    17    1
   127    17    16    1
   128    18    16    1
   129   165   163   ar
   130   166   164   ar
   131    77    78    2
   132    16    13    1
   133     9    11    1
   134     9     8    2
   135   152   151    1
   136   151   150    1
   137   164   162   ar
   138   163   162   ar
   139     8     7    1
   140     7     6    1
   141   162   161    1
   142    13    12    1
   143    13    14    1
   144   146   147    1
   145     5     6    1
   146     5     2    1
   147    15    14    2
   148   150   147    1
   149    12     3   am
   150     4     3    2
   151     3     2    1
   152   147   148    1
   153   161   158    1
   154     2     1    1
   155   157   158    1
   156   158   159    1
   157   148   149    2
   158   159   160    2
