@<TRIPOS>MOLECULE
tmp/1z57A00.pdb
 146 136 0 0 0
SMALL
GASTEIGER

@<TRIPOS>ATOM
      1  N          5.3540   20.9020   23.7300 N.3    22  LEU22      -0.1231
      2  CA         6.6110   20.1050   23.7340 C.3    22  LEU22       0.1693
      3  C          7.1340   19.8170   22.3130 C.2    22  LEU22       0.2592
      4  O          8.3310   19.8950   22.0650 O.2    22  LEU22      -0.2718
      5  CB         6.4030   18.8080   24.5050 C.3    22  LEU22       0.0284
      6  CG         6.1070   19.0010   25.9780 C.3    22  LEU22       0.0019
      7  CD1        5.6270   17.7090   26.6100 C.3    22  LEU22       0.0001
      8  CD2        7.3040   19.5530   26.7310 C.3    22  LEU22       0.0001
      9  N          6.2600   19.5170   21.3770 N.am   23  GLY23      -0.1957
     10  CA         6.6960   19.1870   20.0130 C.3    23  GLY23       0.1869
     11  C          5.5030   19.0250   19.0760 C.2    23  GLY23       0.2309
     12  O          4.3490   19.0220   19.5080 O.2    23  GLY23      -0.2863
     13  N          1.3170   13.8570   13.0250 N.3    27  PHE27      -0.1241
     14  CA         0.1400   13.4310   13.7630 C.3    27  PHE27       0.1605
     15  C         -0.6350   14.5600   14.4470 C.2    27  PHE27       0.2264
     16  O         -1.7840   14.3320   14.8020 O.2    27  PHE27      -0.2867
     17  CB         0.4980   12.4260   14.8720 C.3    27  PHE27       0.0534
     18  CG         1.5240   12.9580   15.8510 C.ar   27  PHE27      -0.0203
     19  CD1        1.1460   13.8150   16.8740 C.ar   27  PHE27      -0.0042
     20  CD2        2.8700   12.6410   15.7170 C.ar   27  PHE27      -0.0042
     21  CE1        2.0940   14.3450   17.7480 C.ar   27  PHE27      -0.0003
     22  CE2        3.8000   13.1590   16.5780 C.ar   27  PHE27      -0.0003
     23  CZ         3.4190   14.0130   17.6060 C.ar   27  PHE27      -0.0000
     24  N          2.2920   17.6790   20.8070 N.3    30  VAL30      -0.1245
     25  CA         2.3410   17.1680   22.1600 C.3    30  VAL30       0.1561
     26  C          2.4920   18.3990   23.0660 C.2    30  VAL30       0.2260
     27  O          3.3110   19.2530   22.8150 O.2    30  VAL30      -0.2867
     28  CB         3.5290   16.2130   22.3820 C.3    30  VAL30       0.0252
     29  CG1        3.5470   15.6750   23.7850 C.3    30  VAL30       0.0019
     30  CG2        3.4970   15.0440   21.3450 C.3    30  VAL30       0.0019
     31  N          2.4780   14.5980   29.5890 N.3    44  ALA44      -0.1245
     32  CA         2.5000   14.9760   28.1640 C.3    44  ALA44       0.1562
     33  C          1.2120   14.4670   27.5750 C.2    44  ALA44       0.2260
     34  O          0.7860   13.3370   27.8530 O.2    44  ALA44      -0.2867
     35  CB         3.6790   14.3340   27.4400 C.3    44  ALA44       0.0290
     36  N         -0.5640   14.0090   23.8880 N.3    46  LYS46      -0.1245
     37  CA        -0.5010   13.9940   22.4330 C.3    46  LYS46       0.1561
     38  C         -1.9020   14.2510   21.8900 C.2    46  LYS46       0.2260
     39  O         -2.8170   13.4510   22.0900 O.2    46  LYS46      -0.2867
     40  CB        -0.0110   12.6250   21.9730 C.3    46  LYS46       0.0271
     41  CG         0.2670   12.4500   20.4770 C.3    46  LYS46       0.0035
     42  CD         1.0330   11.0890   20.3280 C.3    46  LYS46       0.0206
     43  CE         1.2300   10.6370   18.9580 C.3    46  LYS46       0.1093
     44  NZ         2.1740    9.4840   18.9140 N.3    46  LYS46      -0.1314
     45  N         -2.1080    2.9240   18.1880 N.3    61  GLU61      -0.1245
     46  CA        -1.0870    3.2390   19.1880 C.3    61  GLU61       0.1567
     47  C         -1.5890    2.9430   20.6120 C.2    61  GLU61       0.2260
     48  O         -0.8800    2.3540   21.4310 O.2    61  GLU61      -0.2867
     49  CB        -0.6000    4.7010   19.0520 C.3    61  GLU61       0.0388
     50  CG         0.2650    5.1490   20.2100 C.3    61  GLU61       0.1160
     51  CD         1.0370    6.4360   19.9370 C.2    61  GLU61       0.3649
     52  OE1        0.3980    7.4210   19.5160 O.co2  61  GLU61      -0.2457
     53  OE2        2.2730    6.4600   20.1660 O.co2  61  GLU61      -0.2457
     54  N          7.7430    4.1180   26.5020 N.3    80  VAL80      -0.1245
     55  CA         6.9740    5.1550   27.2180 C.3    80  VAL80       0.1561
     56  C          5.6520    4.6010   27.8250 C.2    80  VAL80       0.2260
     57  O          5.0030    3.7030   27.2440 O.2    80  VAL80      -0.2867
     58  CB         6.7080    6.3460   26.2590 C.3    80  VAL80       0.0252
     59  CG1        5.6970    5.9210   25.2280 C.3    80  VAL80       0.0019
     60  CG2        6.2310    7.5780   27.0570 C.3    80  VAL80       0.0019
     61  N          0.5710   10.6930   28.4760 N.3    96  PHE96      -0.1227
     62  CA         1.8060    9.9360   28.7720 C.3    96  PHE96       0.1736
     63  C          2.5390   10.4990   29.9680 C.2    96  PHE96       0.2595
     64  O          2.4060   11.7010   30.3150 O.2    96  PHE96      -0.2718
     65  CB         2.7660   10.0440   27.6040 C.3    96  PHE96       0.0547
     66  CG         2.2530    9.4440   26.3170 C.ar   96  PHE96      -0.0202
     67  CD1        2.4750    8.0970   26.0180 C.ar   96  PHE96      -0.0042
     68  CD2        1.5810   10.2280   25.3840 C.ar   96  PHE96      -0.0042
     69  CE1        2.0090    7.5280   24.8130 C.ar   96  PHE96      -0.0003
     70  CE2        1.1240    9.6720   24.1910 C.ar   96  PHE96      -0.0003
     71  CZ         1.3680    8.3010   23.9030 C.ar   96  PHE96      -0.0000
     72  N          3.4080    9.6840   30.5490 N.am   97  GLU97      -0.1965
     73  CA         4.4740   10.2410   31.3770 C.3    97  GLU97       0.1733
     74  C          5.2250   11.3550   30.6180 C.2    97  GLU97       0.2616
     75  O          5.4610   11.2560   29.4020 O.2    97  GLU97      -0.2715
     76  CB         5.4690    9.1690   31.8320 C.3    97  GLU97       0.0429
     77  CG         6.2510    8.5290   30.7230 C.3    97  GLU97       0.1163
     78  CD         7.2660    7.5080   31.2140 C.2    97  GLU97       0.3649
     79  OE1        7.9360    7.7640   32.2500 O.co2  97  GLU97      -0.2457
     80  OE2        7.3990    6.4510   30.5730 O.co2  97  GLU97      -0.2457
     81  N          5.6350   12.3960   31.3370 N.am   98  LEU98      -0.1963
     82  CA         6.4190   13.4790   30.7630 C.3    98  LEU98       0.1728
     83  C          7.9130   13.1140   30.7270 C.2    98  LEU98       0.2616
     84  O          8.5290   12.7600   31.7810 O.2    98  LEU98      -0.2715
     85  CB         6.2700   14.7390   31.6060 C.3    98  LEU98       0.0311
     86  CG         7.0290   15.9480   31.1400 C.3    98  LEU98       0.0022
     87  CD1        6.5100   16.4070   29.7920 C.3    98  LEU98       0.0001
     88  CD2        6.8620   17.0320   32.1810 C.3    98  LEU98       0.0001
     89  N          8.4830   13.2410   29.5330 N.am   99  LEU99      -0.1963
     90  CA         9.9230   12.9970   29.2870 C.3    99  LEU99       0.1728
     91  C         10.6000   14.3200   28.9530 C.2    99  LEU99       0.2616
     92  O          9.9460   15.3730   28.9260 O.2    99  LEU99      -0.2715
     93  CB        10.1160   11.9920   28.1560 C.3    99  LEU99       0.0311
     94  CG         9.4000   10.6800   28.4930 C.3    99  LEU99       0.0022
     95  CD1        9.3730    9.7830   27.2450 C.3    99  LEU99       0.0001
     96  CD2       10.0500   10.0010   29.6560 C.3    99  LEU99       0.0001
     97  N         11.9050   14.2640   28.7580 N.am  100  GLY100     -0.1955
     98  CA        12.6830   15.4060   28.2920 C.3   100  GLY100      0.1869
     99  C         12.7400   15.5370   26.7800 C.2   100  GLY100      0.2309
    100  O         11.8730   15.0330   26.0630 O.2   100  GLY100     -0.2863
    101  N         13.5400   15.1690   22.8730 N.3   102  SER102     -0.1217
    102  CA        13.9130   14.1170   21.9290 C.3   102  SER102      0.1889
    103  C         15.4020   14.2450   21.6050 C.2   102  SER102      0.2288
    104  O         16.0370   15.3390   21.7060 O.2   102  SER102     -0.2866
    105  CB        13.1050   14.1920   20.6300 C.3   102  SER102      0.2089
    106  OG        13.5080   15.2840   19.8220 O.3   102  SER102     -0.2183
    107  N         13.7490   11.6470   16.5410 N.3   147  GLU147     -0.1231
    108  CA        12.5990   12.3600   17.0570 C.3   147  GLU147      0.1699
    109  C         11.7570   11.4460   17.9650 C.2   147  GLU147      0.2592
    110  O         11.0140   11.9250   18.8290 O.2   147  GLU147     -0.2718
    111  CB        11.7230   12.8410   15.8740 C.3   147  GLU147      0.0402
    112  CG        12.3820   13.8610   15.0090 C.3   147  GLU147      0.1161
    113  CD        13.1810   13.3240   13.7840 C.2   147  GLU147      0.3649
    114  OE1       13.9140   12.2920   13.8410 O.co2 147  GLU147     -0.2457
    115  OE2       13.1120   14.0270   12.7400 O.co2 147  GLU147     -0.2457
    116  N         11.8800   10.1190   17.7780 N.am  148  ASN148     -0.1974
    117  CA        11.0830    9.1400   18.5280 C.3   148  ASN148      0.1688
    118  C         11.8590    8.4080   19.6300 C.2   148  ASN148      0.2292
    119  O         11.3820    7.4230   20.1730 O.2   148  ASN148     -0.2864
    120  CB        10.4230    8.1420   17.5730 C.3   148  ASN148      0.1181
    121  CG         9.3170    8.7770   16.7590 C.2   148  ASN148      0.2629
    122  OD1        8.7630    9.8350   17.1460 O.2   148  ASN148     -0.2716
    123  ND2        8.9990    8.1670   15.6100 N.am  148  ASN148     -0.0877
    124  N         13.4790    9.6670   23.2300 N.3   150  LEU150     -0.1245
    125  CA        13.4600   10.8070   24.1200 C.3   150  LEU150      0.1561
    126  C         14.3130   10.5700   25.3500 C.2   150  LEU150      0.2260
    127  O         14.2890    9.4780   25.9470 O.2   150  LEU150     -0.2867
    128  CB        12.0340   11.1700   24.5360 C.3   150  LEU150      0.0270
    129  CG        11.2780   12.1540   23.6170 C.3   150  LEU150      0.0019
    130  CD1       11.0820   11.5980   22.2790 C.3   150  LEU150      0.0001
    131  CD2        9.9420   12.5300   24.2260 C.3   150  LEU150      0.0001
    132  N          9.3940    6.1520   21.9980 N.3   175  VAL175     -0.1231
    133  CA         8.0210    6.6200   21.8510 C.3   175  VAL175      0.1692
    134  C          7.4980    6.3950   20.4160 C.2   175  VAL175      0.2592
    135  O          8.2120    5.9300   19.5170 O.2   175  VAL175     -0.2718
    136  CB         7.8940    8.1180   22.2550 C.3   175  VAL175      0.0266
    137  CG1        8.5340    8.3810   23.6360 C.3   175  VAL175      0.0020
    138  CG2        8.5220    9.0550   21.2310 C.3   175  VAL175      0.0020
    139  N          6.2140    6.6570   20.2710 N.am  176  ASP176     -0.1974
    140  CA         5.4780    6.7170   19.0010 C.3   176  ASP176      0.1709
    141  C          5.2090    5.3720   18.4080 C.2   176  ASP176      0.2293
    142  O          6.0000    4.8920   17.5910 O.2   176  ASP176     -0.2864
    143  CB         6.1280    7.6270   17.9680 C.3   176  ASP176      0.1436
    144  CG         5.1040    8.1330   16.9490 C.2   176  ASP176      0.3671
    145  OD1        4.2540    7.2950   16.5060 O.co2 176  ASP176     -0.2456
    146  OD2        5.1140    9.3520   16.6400 O.co2 176  ASP176     -0.2456
@<TRIPOS>BOND
     1   115   113   ar
     2    13    14    1
     3    14    15    1
     4    14    17    1
     5   113   114   ar
     6   113   112    1
     7    15    16    2
     8    17    18    1
     9   112   111    1
    10   123   121   am
    11    20    18   ar
    12    20    22   ar
    13    18    19   ar
    14   111   108    1
    15   145   144   ar
    16   107   108    1
    17    22    23   ar
    18   146   144   ar
    19   121   122    2
    20   121   120    1
    21    19    21   ar
    22   144   143    1
    23   108   109    1
    24   120   117    1
    25   142   141    2
    26    23    21   ar
    27   116   109   am
    28   116   117    1
    29   109   110    2
    30   143   140    1
    31    45    46    1
    32   141   140    1
    33   117   118    1
    34    44    43    1
    35    43    42    1
    36   140   139    1
    37    49    46    1
    38    49    50    1
    39    11    12    2
    40    11    10    1
    41    46    47    1
    42    52    51   ar
    43   135   134    2
    44   118   119    2
    45   106   105    1
    46    51    53   ar
    47    51    50    1
    48    10     9    1
    49   139   134   am
    50    42    41    1
    51   134   133    1
    52    41    40    1
    53    47    48    2
    54   105   102    1
    55    24    25    1
    56   138   136    1
    57    30    28    1
    58     9     3   am
    59   103   104    2
    60   103   102    1
    61   133   132    1
    62   133   136    1
    63    38    39    2
    64    38    37    1
    65   102   101    1
    66    40    37    1
    67     4     3    2
    68    25    28    1
    69    25    26    1
    70   136   137    1
    71   130   129    1
    72     3     2    1
    73    28    29    1
    74    37    36    1
    75    27    26    2
    76   124   125    1
    77   129   131    1
    78   129   128    1
    79     1     2    1
    80     2     5    1
    81    71    70   ar
    82    71    69   ar
    83   125   128    1
    84   125   126    1
    85    70    68   ar
    86     5     6    1
    87    69    67   ar
    88    59    58    1
    89   126   127    2
    90    68    66   ar
    91     6     7    1
    92     6     8    1
    93    67    66   ar
    94   100    99    2
    95    58    60    1
    96    58    55    1
    97    66    65    1
    98    54    55    1
    99    99    98    1
   100    55    56    1
   101    57    56    2
   102    95    94    1
   103    35    32    1
   104    33    34    2
   105    33    32    1
   106    65    62    1
   107    93    94    1
   108    93    90    1
   109    32    31    1
   110    98    97    1
   111    61    62    1
   112    94    96    1
   113    97    91   am
   114    62    63    1
   115    92    91    2
   116    91    90    1
   117    90    89    1
   118    75    74    2
   119    89    83   am
   120    87    86    1
   121    63    64    2
   122    63    72   am
   123    72    73    1
   124    80    78   ar
   125    74    81   am
   126    74    73    1
   127    77    78    1
   128    77    76    1
   129    83    82    1
   130    83    84    2
   131    82    81    1
   132    82    85    1
   133    86    85    1
   134    86    88    1
   135    78    79   ar
   136    73    76    1
