@<TRIPOS>MOLECULE
tmp/1z5bB00.pdb
 192 184 0 0 0
SMALL
GASTEIGER

@<TRIPOS>ATOM
      1  N         44.1530   52.6530  139.3580 N.3    35  GLU35      -0.1231
      2  CA        44.5940   52.0070  138.1000 C.3    35  GLU35       0.1699
      3  C         45.1350   53.0680  137.1460 C.2    35  GLU35       0.2592
      4  O         46.1480   52.8640  136.4880 O.2    35  GLU35      -0.2718
      5  CB        43.4520   51.2280  137.4160 C.3    35  GLU35       0.0402
      6  CG        42.9470   49.9980  138.1830 C.3    35  GLU35       0.1161
      7  CD        43.8610   48.7680  138.1190 C.2    35  GLU35       0.3649
      8  OE1       43.5160   47.7410  138.7450 O.co2  35  GLU35      -0.2457
      9  OE2       44.9150   48.7950  137.4660 O.co2  35  GLU35      -0.2457
     10  N         44.4630   54.2170  137.0870 N.am   36  LEU36      -0.1980
     11  CA        44.8940   55.2770  136.1850 C.3    36  LEU36       0.1596
     12  C         46.1710   55.9500  136.6630 C.2    36  LEU36       0.2287
     13  O         47.0640   56.2360  135.8590 O.2    36  LEU36      -0.2864
     14  CB        43.7730   56.3100  135.9660 C.3    36  LEU36       0.0297
     15  CG        42.5220   55.8010  135.2240 C.3    36  LEU36       0.0022
     16  CD1       41.3960   56.8300  135.3190 C.3    36  LEU36       0.0001
     17  CD2       42.8360   55.4750  133.7620 C.3    36  LEU36       0.0001
     18  N         49.0570   53.6150  135.9190 N.3    39  ASN39      -0.1225
     19  CA        49.3480   53.7020  134.4930 C.3    39  ASN39       0.1785
     20  C         50.1690   54.9400  134.1600 C.2    39  ASN39       0.2597
     21  O         51.1430   54.8600  133.4170 O.2    39  ASN39      -0.2718
     22  CB        48.0510   53.6860  133.6600 C.3    39  ASN39       0.1169
     23  CG        47.4620   52.2830  133.5080 C.2    39  ASN39       0.2627
     24  OD1       48.0990   51.2830  133.8750 O.2    39  ASN39      -0.2716
     25  ND2       46.2260   52.2050  132.9980 N.am   39  ASN39      -0.0877
     26  N         49.7910   56.0800  134.7310 N.am   40  SER40      -0.1952
     27  CA        50.5260   57.3210  134.5090 C.3    40  SER40       0.1924
     28  C         51.9470   57.2850  135.0630 C.2    40  SER40       0.2314
     29  O         52.8750   57.7510  134.4050 O.2    40  SER40      -0.2863
     30  CB        49.7540   58.5070  135.0810 C.3    40  SER40       0.2116
     31  OG        48.5400   58.7020  134.3530 O.3    40  SER40      -0.2180
     32  N         54.1240   55.1200  132.9270 N.3    43  ALA43      -0.1245
     33  CA        54.4120   55.8470  131.6870 C.3    43  ALA43       0.1562
     34  C         55.3730   57.0320  131.8740 C.2    43  ALA43       0.2260
     35  O         55.7600   57.6540  130.9050 O.2    43  ALA43      -0.2867
     36  CB        53.1090   56.3250  131.0470 C.3    43  ALA43       0.0290
     37  N         48.5450   62.9140  132.4720 N.3    73  ASP73      -0.1239
     38  CA        49.9460   62.7830  132.7940 C.3    73  ASP73       0.1674
     39  C         50.8340   63.4050  131.7040 C.2    73  ASP73       0.2266
     40  O         50.3470   63.8090  130.6130 O.2    73  ASP73      -0.2867
     41  CB        50.3210   61.3110  133.0590 C.3    73  ASP73       0.1410
     42  CG        50.1520   60.4270  131.8130 C.2    73  ASP73       0.3668
     43  OD1       49.3590   59.4550  131.8560 O.co2  73  ASP73      -0.2456
     44  OD2       50.7770   60.6310  130.7560 O.co2  73  ASP73      -0.2456
     45  N         54.9950   59.0340  128.3060 N.3    76  ILE76      -0.1231
     46  CA        55.4210   58.7410  126.9270 C.3    76  ILE76       0.1692
     47  C         54.2840   58.6150  125.9130 C.2    76  ILE76       0.2593
     48  O         54.5320   58.4470  124.7190 O.2    76  ILE76      -0.2718
     49  CB        56.2630   57.4700  126.9200 C.3    76  ILE76       0.0266
     50  CG1       55.4550   56.2990  127.5260 C.3    76  ILE76       0.0019
     51  CG2       57.5610   57.7310  127.6840 C.3    76  ILE76       0.0020
     52  CD1       55.9700   54.8960  127.1550 C.3    76  ILE76       0.0001
     53  N         53.0400   58.6650  126.4010 N.am   77  GLY77      -0.1942
     54  CA        51.8660   58.4510  125.5740 C.3    77  GLY77       0.2014
     55  C         51.7900   57.0200  125.0470 C.2    77  GLY77       0.2638
     56  O         52.5380   56.1380  125.4820 O.2    77  GLY77      -0.2714
     57  N         50.8900   56.8030  124.0920 N.am   78  ILE78      -0.1977
     58  CA        50.6800   55.4790  123.4920 C.3    78  ILE78       0.1596
     59  C         50.6580   55.7000  121.9770 C.2    78  ILE78       0.2287
     60  O         49.9790   56.6210  121.5030 O.2    78  ILE78      -0.2864
     61  CB        49.3180   54.8500  123.9600 C.3    78  ILE78       0.0276
     62  CG1       49.2570   54.6860  125.4930 C.3    78  ILE78       0.0022
     63  CG2       49.0820   53.4720  123.2820 C.3    78  ILE78       0.0022
     64  CD1       48.3530   55.6720  126.1980 C.3    78  ILE78       0.0001
     65  N         45.1300   48.7480  123.6710 N.3    86  ALA86      -0.1231
     66  CA        45.6210   49.1090  125.0090 C.3    86  ALA86       0.1694
     67  C         44.4690   49.3510  125.9770 C.2    86  ALA86       0.2592
     68  O         44.5140   48.9180  127.1270 O.2    86  ALA86      -0.2718
     69  CB        46.5460   50.3330  124.9350 C.3    86  ALA86       0.0304
     70  N         43.4240   50.0320  125.5060 N.am   87  PHE87      -0.1976
     71  CA        42.2810   50.3610  126.3690 C.3    87  PHE87       0.1639
     72  C         41.0650   49.4760  126.2030 C.2    87  PHE87       0.2290
     73  O         40.1620   49.5020  127.0380 O.2    87  PHE87      -0.2864
     74  CB        41.9000   51.8440  126.2050 C.3    87  PHE87       0.0560
     75  CG        42.9370   52.7690  126.7320 C.ar   87  PHE87      -0.0200
     76  CD1       42.9060   53.1710  128.0620 C.ar   87  PHE87      -0.0042
     77  CD2       43.9990   53.1760  125.9210 C.ar   87  PHE87      -0.0042
     78  CE1       43.8960   54.0070  128.5810 C.ar   87  PHE87      -0.0003
     79  CE2       45.0090   54.0120  126.4250 C.ar   87  PHE87      -0.0003
     80  CZ        44.9610   54.4170  127.7620 C.ar   87  PHE87      -0.0000
     81  N         46.0450   42.6560  127.3270 N.3    92  TYR92      -0.1227
     82  CA        46.9030   43.3450  126.3670 C.3    92  TYR92       0.1736
     83  C         47.6720   44.3960  127.1280 C.2    92  TYR92       0.2596
     84  O         47.0720   45.2660  127.7940 O.2    92  TYR92      -0.2718
     85  CB        46.0490   44.0140  125.2810 C.3    92  TYR92       0.0548
     86  CG        46.8010   44.3640  124.0280 C.ar   92  TYR92      -0.0200
     87  CD1       46.9690   43.4270  123.0100 C.ar   92  TYR92      -0.0009
     88  CD2       47.3250   45.6400  123.8410 C.ar   92  TYR92      -0.0009
     89  CE1       47.6660   43.7460  121.8390 C.ar   92  TYR92       0.0417
     90  CE2       48.0160   45.9700  122.6840 C.ar   92  TYR92       0.0417
     91  CZ        48.1760   45.0210  121.6790 C.ar   92  TYR92       0.1957
     92  OH        48.8650   45.3490  120.5280 O.3    92  TYR92      -0.2866
     93  N         49.0020   44.3120  127.0420 N.am   93  SER93      -0.1938
     94  CA        49.8740   45.0690  127.9370 C.3    93  SER93       0.2055
     95  C         51.2170   45.3040  127.2860 C.2    93  SER93       0.2644
     96  O         51.6340   44.5320  126.4270 O.2    93  SER93      -0.2714
     97  CB        50.0720   44.2770  129.2390 C.3    93  SER93       0.2130
     98  OG        50.8260   45.0020  130.2040 O.3    93  SER93      -0.2179
     99  N         51.9200   46.3460  127.7110 N.am   94  SER94      -0.1935
    100  CA        53.3550   46.4430  127.4050 C.3    94  SER94       0.2055
    101  C         54.2230   45.9640  128.5810 C.2    94  SER94       0.2642
    102  O         55.4460   46.0770  128.5430 O.2    94  SER94      -0.2714
    103  CB        53.7360   47.8780  126.9950 C.3    94  SER94       0.2130
    104  OG        53.5600   48.7940  128.0760 O.3    94  SER94      -0.2179
    105  N         53.5820   45.4370  129.6230 N.am   95  LYS95      -0.1977
    106  CA        54.2720   45.1290  130.8690 C.3    95  LYS95       0.1596
    107  C         54.3570   43.6250  131.1200 C.2    95  LYS95       0.2287
    108  O         54.5410   43.1840  132.2520 O.2    95  LYS95      -0.2864
    109  CB        53.5930   45.8510  132.0460 C.3    95  LYS95       0.0298
    110  CG        53.5140   47.3910  131.8440 C.3    95  LYS95       0.0038
    111  CD        52.5990   48.0770  132.8450 C.3    95  LYS95       0.0206
    112  CE        52.2680   49.5250  132.4150 C.3    95  LYS95       0.1093
    113  NZ        51.2500   50.1440  133.3450 N.3    95  LYS95      -0.1314
    114  N         52.2460   47.9860  136.8410 N.3   103  GLY103     -0.1210
    115  CA        51.2900   47.1680  136.0990 C.3   103  GLY103      0.1956
    116  C         51.8840   45.8170  135.7410 C.2   103  GLY103      0.2612
    117  O         53.1130   45.6760  135.7360 O.2   103  GLY103     -0.2717
    118  N         51.0270   44.8310  135.4520 N.am  104  MET104     -0.1965
    119  CA        51.4790   43.4550  135.2030 C.3   104  MET104      0.1736
    120  C         50.4880   42.5490  134.4570 C.2   104  MET104      0.2616
    121  O         50.9000   41.5410  133.8650 O.2   104  MET104     -0.2715
    122  CB        51.8850   42.7800  136.5280 C.3   104  MET104      0.0427
    123  CG        50.6960   42.4830  137.4780 C.3   104  MET104      0.0599
    124  SD        51.2220   41.7480  139.0020 S.3   104  MET104     -0.1393
    125  CE        51.7640   40.0910  138.4370 C.3   104  MET104      0.0692
    126  N         49.1960   42.8790  134.4910 N.am  105  TYR105     -0.1960
    127  CA        48.1670   41.9520  133.9750 C.3   105  TYR105      0.1771
    128  C         47.6080   42.3000  132.6060 C.2   105  TYR105      0.2620
    129  O         47.0660   41.4320  131.9350 O.2   105  TYR105     -0.2715
    130  CB        46.9880   41.8370  134.9400 C.3   105  TYR105      0.0574
    131  CG        47.3160   41.3330  136.3250 C.ar  105  TYR105     -0.0198
    132  CD1       47.9810   40.1240  136.5170 C.ar  105  TYR105     -0.0009
    133  CD2       46.8990   42.0440  137.4570 C.ar  105  TYR105     -0.0009
    134  CE1       48.2450   39.6470  137.8090 C.ar  105  TYR105      0.0417
    135  CE2       47.1690   41.5670  138.7470 C.ar  105  TYR105      0.0417
    136  CZ        47.8300   40.3720  138.9030 C.ar  105  TYR105      0.1957
    137  OH        48.0860   39.9090  140.1590 O.3   105  TYR105     -0.2866
    138  N         47.7150   43.5620  132.1980 N.am  106  GLY106     -0.1940
    139  CA        47.0540   44.0010  130.9650 C.3   106  GLY106      0.2014
    140  C         45.5250   43.9990  131.0780 C.2   106  GLY106      0.2639
    141  O         44.8090   43.7250  130.0960 O.2   106  GLY106     -0.2714
    142  N         45.0240   44.3000  132.2760 N.am  107  LEU107     -0.1963
    143  CA        43.5860   44.2150  132.5790 C.3   107  LEU107      0.1728
    144  C         42.9860   45.5200  133.1330 C.2   107  LEU107      0.2617
    145  O         41.8370   45.8620  132.8420 O.2   107  LEU107     -0.2715
    146  CB        43.3520   43.0860  133.6050 C.3   107  LEU107      0.0311
    147  CG        41.9910   43.0230  134.3140 C.3   107  LEU107      0.0022
    148  CD1       40.8910   42.6740  133.3010 C.3   107  LEU107      0.0001
    149  CD2       42.0100   42.0090  135.4460 C.3   107  LEU107      0.0001
    150  N         43.7610   46.2150  133.9580 N.am  108  GLY108     -0.1940
    151  CA        43.2350   47.2180  134.8770 C.3   108  GLY108      0.2014
    152  C         42.3350   48.2650  134.2720 C.2   108  GLY108      0.2639
    153  O         41.2010   48.4630  134.7390 O.2   108  GLY108     -0.2714
    154  N         42.8120   48.9580  133.2420 N.am  109  VAL109     -0.1963
    155  CA        41.9820   49.9890  132.6310 C.3   109  VAL109      0.1727
    156  C         40.7690   49.3680  131.8920 C.2   109  VAL109      0.2616
    157  O         39.6820   49.9400  131.9000 O.2   109  VAL109     -0.2715
    158  CB        42.7970   50.9950  131.7650 C.3   109  VAL109      0.0290
    159  CG1       43.1220   50.3910  130.3630 C.3   109  VAL109      0.0023
    160  CG2       42.0580   52.3640  131.6500 C.3   109  VAL109      0.0023
    161  N         40.9450   48.1810  131.2990 N.am  110  LYS110     -0.1977
    162  CA        39.8070   47.4840  130.6600 C.3   110  LYS110      0.1596
    163  C         38.7290   47.0940  131.6880 C.2   110  LYS110      0.2287
    164  O         37.5360   47.1430  131.3900 O.2   110  LYS110     -0.2864
    165  CB        40.2730   46.2420  129.9020 C.3   110  LYS110      0.0298
    166  CG        40.7990   46.5150  128.4810 C.3   110  LYS110      0.0038
    167  CD        42.2210   47.0520  128.4910 C.3   110  LYS110      0.0206
    168  CE        43.2250   45.9690  128.8520 C.3   110  LYS110      0.1093
    169  NZ        44.6290   46.4900  128.6570 N.3   110  LYS110     -0.1314
    170  N         49.2470   61.6900  128.2480 N.3   167  THR167     -0.1218
    171  CA        47.9780   61.0390  128.0060 C.3   167  THR167      0.1862
    172  C         46.9390   61.5660  128.9860 C.2   167  THR167      0.2287
    173  O         47.2430   61.8140  130.1410 O.2   167  THR167     -0.2866
    174  CB        48.1340   59.5160  128.1750 C.3   167  THR167      0.1770
    175  OG1       49.1190   59.0420  127.2550 O.3   167  THR167     -0.2211
    176  CG2       46.8280   58.7600  127.7780 C.3   167  THR167      0.0375
    177  N         43.0670   60.3690  130.2760 N.3   169  VAL169     -0.1245
    178  CA        42.0430   59.3290  130.2260 C.3   169  VAL169      0.1561
    179  C         40.9020   59.7900  131.0880 C.2   169  VAL169      0.2260
    180  O         41.1300   60.2210  132.2340 O.2   169  VAL169     -0.2867
    181  CB        42.5790   57.9590  130.7970 C.3   169  VAL169      0.0252
    182  CG1       41.5230   56.8660  130.6920 C.3   169  VAL169      0.0019
    183  CG2       43.8640   57.5420  130.0990 C.3   169  VAL169      0.0019
    184  N         44.8540   43.5230  143.0240 N.3   424  LYS424     -0.1245
    185  CA        46.1720   43.9210  143.5580 C.3   424  LYS424      0.1561
    186  C         46.1790   44.6530  144.9060 C.2   424  LYS424      0.2260
    187  O         46.8660   45.6850  145.0520 O.2   424  LYS424     -0.2867
    188  CB        46.9570   44.7780  142.5520 C.3   424  LYS424      0.0271
    189  CG        47.2540   44.0940  141.2250 C.3   424  LYS424      0.0035
    190  CD        48.4060   44.7880  140.4680 C.3   424  LYS424      0.0206
    191  CE        47.8770   45.5460  139.2760 C.3   424  LYS424      0.1093
    192  NZ        48.8670   46.4930  138.7640 N.3   424  LYS424     -0.1314
@<TRIPOS>BOND
     1    92    91    1
     2    60    59    2
     3    91    89   ar
     4    91    90   ar
     5    89    87   ar
     6    59    58    1
     7    90    88   ar
     8    87    86   ar
     9    63    61    1
    10    58    61    1
    11    58    57    1
    12    65    66    1
    13    88    86   ar
    14    61    62    1
    15    86    85    1
    16    57    55   am
    17    48    47    2
    18    69    66    1
    19    66    67    1
    20    55    56    2
    21    55    54    1
    22    85    82    1
    23    62    64    1
    24    70    67   am
    25    70    71    1
    26    54    53    1
    27    47    53   am
    28    47    46    1
    29    77    79   ar
    30    77    75   ar
    31    67    68    2
    32    72    71    1
    33    72    73    2
    34    74    71    1
    35    74    75    1
    36    82    83    1
    37    82    81    1
    38    79    80   ar
    39    96    95    2
    40    75    76   ar
    41    49    46    1
    42    49    50    1
    43    49    51    1
    44    46    45    1
    45   103   100    1
    46   103   104    1
    47    93    83   am
    48    93    94    1
    49    83    84    2
    50    52    50    1
    51   175   174    1
    52    95    99   am
    53    95    94    1
    54   100    99    1
    55   100   101    1
    56    80    78   ar
    57   176   174    1
    58    94    97    1
    59   171   174    1
    60   171   170    1
    61   171   172    1
    62    76    78   ar
    63   166   167    1
    64   166   165    1
    65   167   168    1
    66   102   101    2
    67   101   105   am
    68   169   168    1
    69   172   173    2
    70    97    98    1
    71   105   106    1
    72   165   162    1
    73   141   140    2
    74   183   181    1
    75   178   177    1
    76   178   181    1
    77   178   179    1
    78   159   158    1
    79    40    39    2
    80   162   161    1
    81   162   163    1
    82   182   181    1
    83    44    42   ar
    84   106   107    1
    85   106   109    1
    86    35    34    2
    87   139   140    1
    88   139   138    1
    89    36    33    1
    90   140   142   am
    91   179   180    2
    92   107   108    2
    93   161   156   am
    94   164   163    2
    95   160   158    1
    96    33    34    1
    97    33    32    1
    98    39    38    1
    99   158   155    1
   100    42    43   ar
   101    42    41    1
   102   110   109    1
   103   110   111    1
   104   156   157    2
   105   156   155    1
   106   129   128    2
   107   138   128   am
   108   142   143    1
   109   112   111    1
   110   112   113    1
   111    37    38    1
   112   143   144    1
   113   143   146    1
   114   128   127    1
   115   155   154    1
   116    38    41    1
   117   145   144    2
   118    25    23   am
   119   144   150   am
   120   154   152   am
   121   148   147    1
   122    21    20    2
   123    23    22    1
   124    23    24    2
   125   146   147    1
   126    22    19    1
   127    17    15    1
   128   121   120    2
   129   150   151    1
   130   127   126    1
   131   127   130    1
   132    20    19    1
   133    20    26   am
   134   152   153    2
   135   152   151    1
   136   147   149    1
   137    31    30    1
   138    29    28    2
   139   120   126   am
   140   120   119    1
   141    19    18    1
   142    27    26    1
   143    27    28    1
   144    27    30    1
   145   130   131    1
   146   119   118    1
   147   119   122    1
   148    15    16    1
   149    15    14    1
   150   118   116   am
   151   117   116    2
   152   116   115    1
   153    13    12    2
   154    14    11    1
   155   115   114    1
   156    11    12    1
   157    11    10    1
   158   131   132   ar
   159   131   133   ar
   160     4     3    2
   161   132   134   ar
   162   122   123    1
   163    10     3   am
   164     3     2    1
   165     5     2    1
   166     5     6    1
   167   133   135   ar
   168     9     7   ar
   169   123   124    1
   170   134   136   ar
   171     2     1    1
   172     7     6    1
   173     7     8   ar
   174   125   124    1
   175   135   136   ar
   176   192   191    1
   177   136   137    1
   178   191   190    1
   179   190   189    1
   180   189   188    1
   181   188   185    1
   182   184   185    1
   183   185   186    1
   184   186   187    2
