@<TRIPOS>MOLECULE
tmp/1z5lA04.pdb
 189 181 0 0 0
SMALL
GASTEIGER

@<TRIPOS>ATOM
      1  N          5.9200   -0.7490   33.7730 N.3     3  PHE3       -0.1241
      2  CA         6.0350    0.4610   32.9830 C.3     3  PHE3        0.1605
      3  C          6.0040   -0.0030   31.5580 C.2     3  PHE3        0.2264
      4  O          6.7910   -0.8540   31.1610 O.2     3  PHE3       -0.2867
      5  CB         7.3450    1.1750   33.2790 C.3     3  PHE3        0.0534
      6  CG         7.5400    2.4490   32.5270 C.ar    3  PHE3       -0.0203
      7  CD1        6.7390    3.5610   32.7810 C.ar    3  PHE3       -0.0042
      8  CD2        8.5320    2.5520   31.5780 C.ar    3  PHE3       -0.0042
      9  CE1        6.9250    4.7370   32.0830 C.ar    3  PHE3       -0.0003
     10  CE2        8.7300    3.7370   30.8740 C.ar    3  PHE3       -0.0003
     11  CZ         7.9200    4.8330   31.1290 C.ar    3  PHE3       -0.0000
     12  N          5.8550    1.5410   27.5200 N.3     5  CYS5       -0.1221
     13  CA         5.7570    2.4360   26.3540 C.3     5  CYS5        0.1808
     14  C          5.1430    1.5950   25.2240 C.2     5  CYS5        0.2601
     15  O          5.6310    0.5130   24.8640 O.2     5  CYS5       -0.2717
     16  CB         7.0920    3.0030   25.9070 C.3     5  CYS5        0.0970
     17  SG         7.9700    3.8960   27.1890 S.3     5  CYS5       -0.0800
     18  N          4.0660    2.1380   24.6870 N.am    6  LEU6       -0.1965
     19  CA         3.1890    1.4900   23.7380 C.3     6  LEU6        0.1728
     20  C          3.1370    2.3750   22.5070 C.2     6  LEU6        0.2616
     21  O          2.6540    3.5080   22.5550 O.2     6  LEU6       -0.2715
     22  CB         1.8150    1.3390   24.3920 C.3     6  LEU6        0.0311
     23  CG         1.4090   -0.0250   24.9280 C.3     6  LEU6        0.0022
     24  CD1        2.4980   -0.9880   25.5530 C.3     6  LEU6        0.0001
     25  CD2        0.1870    0.0950   25.7760 C.3     6  LEU6        0.0001
     26  N          3.6590    1.8510   21.4080 N.am    7  GLN7       -0.1977
     27  CA         3.7260    2.5390   20.1280 C.3     7  GLN7        0.1601
     28  C          2.8560    1.8230   19.1210 C.2     7  GLN7        0.2287
     29  O          2.8950    0.5620   19.0220 O.2     7  GLN7       -0.2864
     30  CB         5.1570    2.5510   19.6260 C.3     7  GLN7        0.0394
     31  CG         5.3900    3.2770   18.3330 C.3     7  GLN7        0.0908
     32  CD         6.7910    3.0690   17.8170 C.2     7  GLN7        0.2608
     33  OE1        7.7420    3.3770   18.5090 O.2     7  GLN7       -0.2717
     34  NE2        6.9220    2.5360   16.5910 N.am    7  GLN7       -0.0878
     35  N          2.1470    6.9930   20.2350 N.3    21  SER21      -0.1217
     36  CA         2.5850    6.3530   21.4760 C.3    21  SER21       0.1889
     37  C          1.8030    6.8500   22.6830 C.2    21  SER21       0.2288
     38  O          1.4280    8.0640   22.8240 O.2    21  SER21      -0.2866
     39  CB         4.0530    6.6800   21.8350 C.3    21  SER21       0.2089
     40  OG         4.9560    6.6330   20.7440 O.3    21  SER21      -0.2183
     41  N          2.1350    6.0140   27.0040 N.3    23  VAL23      -0.1245
     42  CA         2.8930    5.3730   28.0830 C.3    23  VAL23       0.1561
     43  C          2.1000    5.2230   29.4000 C.2    23  VAL23       0.2260
     44  O          1.3890    6.1470   29.8090 O.2    23  VAL23      -0.2867
     45  CB         4.3770    5.9260   28.2240 C.3    23  VAL23       0.0252
     46  CG1        4.5650    7.2430   27.5380 C.3    23  VAL23       0.0019
     47  CG2        4.8320    5.9560   29.6300 C.3    23  VAL23       0.0019
     48  N          2.1650    9.5450   29.7050 N.3    31  HIS31      -0.1241
     49  CA         2.4890   10.3550   28.5380 C.3    31  HIS31       0.1621
     50  C          1.7300    9.9240   27.2870 C.2    31  HIS31       0.2264
     51  O          1.1390    8.8260   27.1820 O.2    31  HIS31      -0.2867
     52  CB         3.9900   10.4090   28.1660 C.3    31  HIS31       0.0745
     53  CG         4.9670   10.3780   29.3120 C.ar   31  HIS31       0.0817
     54  ND1        5.2550    9.2290   30.0170 N.ar   31  HIS31      -0.2268
     55  CD2        5.7490   11.3450   29.8490 C.ar   31  HIS31       0.1154
     56  CE1        6.1530    9.4910   30.9470 C.ar   31  HIS31       0.1986
     57  NE2        6.4710   10.7690   30.8680 N.ar   31  HIS31      -0.2212
     58  N          2.1450   10.8190   22.8420 N.3    33  TRP33      -0.1241
     59  CA         2.8250   11.4280   21.6970 C.3    33  TRP33       0.1605
     60  C          2.0050   11.1580   20.4310 C.2    33  TRP33       0.2264
     61  O          1.9920   10.0270   19.9360 O.2    33  TRP33      -0.2867
     62  CB         4.2380   10.8630   21.5830 C.3    33  TRP33       0.0550
     63  CG         5.1940   11.6730   20.8130 C.ar   33  TRP33       0.0003
     64  CD1        5.0400   12.9830   20.3900 C.ar   33  TRP33       0.0946
     65  CD2        6.4970   11.2710   20.3870 C.ar   33  TRP33       0.0152
     66  NE1        6.1660   13.3970   19.7200 N.ar   33  TRP33      -0.2442
     67  CE2        7.0750   12.3680   19.6980 C.ar   33  TRP33       0.0810
     68  CE3        7.2430   10.0910   20.5110 C.ar   33  TRP33       0.0012
     69  CZ2        8.3700   12.3110   19.1320 C.ar   33  TRP33       0.0191
     70  CZ3        8.5230   10.0350   19.9470 C.ar   33  TRP33       0.0001
     71  CH2        9.0670   11.1280   19.2700 C.ar   33  TRP33       0.0015
     72  N          6.5540   15.0100   22.9290 N.3    40  ILE40      -0.1245
     73  CA         5.8090   14.1620   23.8540 C.3    40  ILE40       0.1561
     74  C          5.0280   15.0640   24.8180 C.2    40  ILE40       0.2260
     75  O          5.5550   16.0940   25.2840 O.2    40  ILE40      -0.2867
     76  CB         6.7990   13.3490   24.6920 C.3    40  ILE40       0.0252
     77  CG1        7.7370   12.5310   23.8010 C.3    40  ILE40       0.0019
     78  CG2        6.0680   12.4990   25.6970 C.3    40  ILE40       0.0019
     79  CD1        9.0760   12.1650   24.4550 C.3    40  ILE40       0.0001
     80  N         15.3100   15.7250   30.4920 N.3    56  TRP56      -0.1241
     81  CA        14.1390   15.5190   29.6460 C.3    56  TRP56       0.1605
     82  C         14.4090   15.9580   28.1940 C.2    56  TRP56       0.2264
     83  O         14.0660   15.2200   27.2880 O.2    56  TRP56      -0.2867
     84  CB        12.8140   16.0840   30.2370 C.3    56  TRP56       0.0550
     85  CG        11.6580   15.6500   29.4120 C.ar   56  TRP56       0.0003
     86  CD1       10.9240   16.4090   28.5530 C.ar   56  TRP56       0.0946
     87  CD2       11.1200   14.3290   29.3410 C.ar   56  TRP56       0.0152
     88  NE1        9.9450   15.6440   27.9490 N.ar   56  TRP56      -0.2442
     89  CE2       10.0440   14.3580   28.4200 C.ar   56  TRP56       0.0810
     90  CE3       11.4280   13.1210   29.9710 C.ar   56  TRP56       0.0012
     91  CZ2        9.2780   13.2180   28.1140 C.ar   56  TRP56       0.0191
     92  CZ3       10.6690   11.9810   29.6590 C.ar   56  TRP56       0.0001
     93  CH2        9.6060   12.0440   28.7390 C.ar   56  TRP56       0.0015
     94  N         16.5720   13.3040   26.2530 N.3    59  LEU59      -0.1245
     95  CA        15.8970   12.0310   26.0770 C.3    59  LEU59       0.1561
     96  C         14.7770   12.1700   25.0640 C.2    59  LEU59       0.2260
     97  O         14.5050   11.2720   24.2770 O.2    59  LEU59      -0.2867
     98  CB        15.3210   11.6350   27.4120 C.3    59  LEU59       0.0270
     99  CG        14.6420   10.2920   27.5080 C.3    59  LEU59       0.0019
    100  CD1       15.7330    9.2560   27.4710 C.3    59  LEU59       0.0001
    101  CD2       13.8650   10.2500   28.7900 C.3    59  LEU59       0.0001
    102  N         14.2070   10.2610   21.1450 N.3    63  PHE63      -0.1241
    103  CA        12.9490    9.7240   20.6700 C.3    63  PHE63       0.1605
    104  C         12.4460   10.3810   19.4030 C.2    63  PHE63       0.2264
    105  O         11.8840    9.7150   18.5340 O.2    63  PHE63      -0.2867
    106  CB        11.9100    9.7530   21.7890 C.3    63  PHE63       0.0534
    107  CG        12.0600    8.6180   22.7530 C.ar   63  PHE63      -0.0203
    108  CD1       11.7320    7.3290   22.3620 C.ar   63  PHE63      -0.0042
    109  CD2       12.5290    8.8290   24.0470 C.ar   63  PHE63      -0.0042
    110  CE1       11.8600    6.2370   23.2450 C.ar   63  PHE63      -0.0003
    111  CE2       12.6730    7.7540   24.9470 C.ar   63  PHE63      -0.0003
    112  CZ        12.3370    6.4510   24.5440 C.ar   63  PHE63      -0.0000
    113  N         14.5410    8.8990   16.7400 N.3    66  TYR66      -0.1241
    114  CA        14.0780    7.5150   16.5880 C.3    66  TYR66       0.1605
    115  C         12.7760    7.4070   15.7900 C.2    66  TYR66       0.2264
    116  O         12.7090    6.6280   14.8810 O.2    66  TYR66      -0.2867
    117  CB        13.8990    6.8630   17.9380 C.3    66  TYR66       0.0534
    118  CG        12.9180    5.7150   17.8820 C.ar   66  TYR66      -0.0201
    119  CD1       13.2800    4.5080   17.3180 C.ar   66  TYR66      -0.0009
    120  CD2       11.6260    5.8480   18.3910 C.ar   66  TYR66      -0.0009
    121  CE1       12.3900    3.4580   17.2570 C.ar   66  TYR66       0.0417
    122  CE2       10.7280    4.8160   18.3400 C.ar   66  TYR66       0.0417
    123  CZ        11.1140    3.6130   17.7680 C.ar   66  TYR66       0.1957
    124  OH        10.2440    2.5390   17.6960 O.3    66  TYR66      -0.2866
    125  N          4.6600   -1.9030   19.0480 N.3    93  LEU93      -0.1245
    126  CA         5.7300   -2.1020   20.0170 C.3    93  LEU93       0.1561
    127  C          5.3280   -1.8160   21.4450 C.2    93  LEU93       0.2260
    128  O          4.7060   -0.7760   21.7540 O.2    93  LEU93      -0.2867
    129  CB         6.9260   -1.1980   19.7430 C.3    93  LEU93       0.0270
    130  CG         7.8520   -1.4810   18.5950 C.3    93  LEU93       0.0019
    131  CD1        7.3420   -0.7820   17.3900 C.3    93  LEU93       0.0001
    132  CD2        9.1860   -0.9340   18.9720 C.3    93  LEU93       0.0001
    133  N          7.3810   -1.6810   24.9210 N.3    95  ALA95      -0.1231
    134  CA         8.7130   -1.6130   25.5370 C.3    95  ALA95       0.1694
    135  C          8.6140   -1.0220   26.9440 C.2    95  ALA95       0.2592
    136  O          7.7030   -0.2560   27.2170 O.2    95  ALA95      -0.2718
    137  CB         9.6460   -0.8220   24.6540 C.3    95  ALA95       0.0304
    138  N          9.5310   -1.3910   27.8350 N.am   96  GLY96      -0.1957
    139  CA         9.5000   -0.9120   29.2250 C.3    96  GLY96       0.1869
    140  C         10.1720   -1.8440   30.2260 C.2    96  GLY96       0.2309
    141  O         11.0360   -2.6190   29.8710 O.2    96  GLY96      -0.2863
    142  N         10.9800   -5.6330   25.2170 N.3   106  LEU106     -0.1245
    143  CA        10.7620   -4.8670   23.9950 C.3   106  LEU106      0.1561
    144  C         10.1980   -5.8620   22.9850 C.2   106  LEU106      0.2260
    145  O         10.9470   -6.6410   22.3830 O.2   106  LEU106     -0.2867
    146  CB        12.0590   -4.1740   23.4980 C.3   106  LEU106      0.0270
    147  CG        11.8850   -3.0320   22.4950 C.3   106  LEU106      0.0019
    148  CD1       13.1600   -2.2420   22.2640 C.3   106  LEU106      0.0001
    149  CD2       11.3670   -3.5710   21.1830 C.3   106  LEU106      0.0001
    150  N         18.9470    1.8280   27.0080 N.3   153  LEU153     -0.1231
    151  CA        17.5900    2.2210   27.3310 C.3   153  LEU153      0.1693
    152  C         16.8510    1.1830   28.1830 C.2   153  LEU153      0.2591
    153  O         16.1590    1.5350   29.1440 O.2   153  LEU153     -0.2718
    154  CB        16.8090    2.5320   26.0540 C.3   153  LEU153      0.0284
    155  CG        17.2000    3.7940   25.2680 C.3   153  LEU153      0.0019
    156  CD1       16.4120    3.8280   23.9700 C.3   153  LEU153      0.0001
    157  CD2       16.9920    5.1120   26.0630 C.3   153  LEU153      0.0001
    158  N         17.0040   -0.0870   27.8190 N.am  154  LEU154     -0.1980
    159  CA        16.3830   -1.1920   28.5300 C.3   154  LEU154      0.1596
    160  C         17.0390   -1.4690   29.8800 C.2   154  LEU154      0.2287
    161  O         16.3820   -1.4150   30.9180 O.2   154  LEU154     -0.2864
    162  CB        16.4470   -2.4560   27.6590 C.3   154  LEU154      0.0297
    163  CG        15.2590   -2.8500   26.7710 C.3   154  LEU154      0.0022
    164  CD1       14.5010   -1.6660   26.1840 C.3   154  LEU154      0.0001
    165  CD2       15.6660   -3.8960   25.7120 C.3   154  LEU154      0.0001
    166  N         18.4390    3.1120   31.3420 N.3   157  THR157     -0.1203
    167  CA        17.5920    4.3120   31.2750 C.3   157  THR157      0.1994
    168  C         16.1780    4.0880   31.8400 C.2   157  THR157      0.2618
    169  O         15.7220    4.8460   32.6940 O.2   157  THR157     -0.2717
    170  CB        17.5130    4.8520   29.8060 C.3   157  THR157      0.1784
    171  OG1       18.8070    4.8310   29.1930 O.3   157  THR157     -0.2211
    172  CG2       17.1300    6.3090   29.7740 C.3   157  THR157      0.0376
    173  N         15.5040    3.0460   31.3430 N.am  158  CYS158     -0.1969
    174  CA        14.1440    2.6760   31.7820 C.3   158  CYS158      0.1712
    175  C         14.0230    2.5050   33.3070 C.2   158  CYS158      0.2296
    176  O         13.2670    3.2460   33.9280 O.2   158  CYS158     -0.2864
    177  CB        13.6210    1.4100   31.0430 C.3   158  CYS158      0.0983
    178  SG        11.9200    0.9140   31.4480 S.3   158  CYS158     -0.0798
    179  N         14.5650    5.8860   35.2880 N.3   161  PHE161     -0.1241
    180  CA        13.5070    6.8520   35.0810 C.3   161  PHE161      0.1605
    181  C         12.2620    6.4420   35.8760 C.2   161  PHE161      0.2264
    182  O         11.7510    7.2370   36.6920 O.2   161  PHE161     -0.2867
    183  CB        13.2010    7.0060   33.5740 C.3   161  PHE161      0.0534
    184  CG        12.0550    7.9630   33.2660 C.ar  161  PHE161     -0.0203
    185  CD1       12.1520    9.3330   33.5730 C.ar  161  PHE161     -0.0042
    186  CD2       10.8790    7.4930   32.6680 C.ar  161  PHE161     -0.0042
    187  CE1       11.0870   10.2240   33.2920 C.ar  161  PHE161     -0.0003
    188  CE2        9.8140    8.3650   32.3800 C.ar  161  PHE161     -0.0003
    189  CZ         9.9190    9.7300   32.6900 C.ar  161  PHE161     -0.0000
@<TRIPOS>BOND
     1   116   115    2
     2   115   114    1
     3   114   113    1
     4   114   117    1
     5    34    32   am
     6   121   119   ar
     7   121   123   ar
     8   119   118   ar
     9   131   130    1
    10   124   123    1
    11   123   122   ar
    12    32    31    1
    13    32    33    2
    14   118   117    1
    15   118   120   ar
    16    31    30    1
    17   122   120   ar
    18   105   104    2
    19   130   132    1
    20   130   129    1
    21    29    28    2
    22   125   126    1
    23    28    27    1
    24    69    71   ar
    25    69    67   ar
    26    71    70   ar
    27   104   103    1
    28    30    27    1
    29    67    66   ar
    30    67    65   ar
    31    66    64   ar
    32   129   126    1
    33    61    60    2
    34    70    68   ar
    35   126   127    1
    36    27    26    1
    37    35    36    1
    38    65    68   ar
    39    65    63   ar
    40    64    63   ar
    41    60    59    1
    42   103   102    1
    43   103   106    1
    44    40    39    1
    45    63    62    1
    46   149   147    1
    47    26    20   am
    48   127   128    2
    49    36    39    1
    50    36    37    1
    51    62    59    1
    52    59    58    1
    53   106   107    1
    54   148   147    1
    55   108   107   ar
    56   108   110   ar
    57   145   144    2
    58   147   146    1
    59    20    21    2
    60    20    19    1
    61    37    38    2
    62   107   109   ar
    63    72    73    1
    64   144   143    1
    65   110   112   ar
    66   146   143    1
    67    19    22    1
    68    19    18    1
    69    77    79    1
    70    77    76    1
    71    73    76    1
    72    73    74    1
    73   156   155    1
    74   143   142    1
    75   109   111   ar
    76    97    96    2
    77    22    23    1
    78   112   111   ar
    79   137   134    1
    80    18    14   am
    81    76    78    1
    82    74    75    2
    83    15    14    2
    84   133   134    1
    85    23    24    1
    86    23    25    1
    87    96    95    1
    88    14    13    1
    89   155   154    1
    90   155   157    1
    91   134   135    1
    92   165   163    1
    93    16    13    1
    94    16    17    1
    95   154   151    1
    96    95    94    1
    97    95    98    1
    98   164   163    1
    99    13    12    1
   100   163   162    1
   101   135   136    2
   102   135   138   am
   103    41    42    1
   104   150   151    1
   105    51    50    2
   106    50    49    1
   107    83    82    2
   108   151   152    1
   109    98    99    1
   110   100    99    1
   111    99   101    1
   112    46    45    1
   113   162   159    1
   114   158   152   am
   115   158   159    1
   116   138   139    1
   117    88    89   ar
   118    88    86   ar
   119    42    45    1
   120    42    43    1
   121    91    89   ar
   122    91    93   ar
   123    52    49    1
   124    52    53    1
   125   152   153    2
   126    82    81    1
   127    45    47    1
   128    89    87   ar
   129   159   160    1
   130    49    48    1
   131    86    85   ar
   132    93    92   ar
   133   171   170    1
   134   139   140    1
   135    53    55   ar
   136    53    54   ar
   137    87    85   ar
   138    87    90   ar
   139    43    44    2
   140    85    84    1
   141    81    84    1
   142    81    80    1
   143    92    90   ar
   144   172   170    1
   145   170   167    1
   146    55    57   ar
   147   141   140    2
   148   160   161    2
   149    54    56   ar
   150    57    56   ar
   151    10    11   ar
   152    10     8   ar
   153   177   178    1
   154   177   174    1
   155    11     9   ar
   156     4     3    2
   157   167   166    1
   158   167   168    1
   159   173   174    1
   160   173   168   am
   161     3     2    1
   162     8     6   ar
   163   174   175    1
   164   168   169    2
   165     9     7   ar
   166   188   186   ar
   167   188   189   ar
   168     6     7   ar
   169     6     5    1
   170   186   184   ar
   171   189   187   ar
   172     2     5    1
   173     2     1    1
   174   184   185   ar
   175   184   183    1
   176   187   185   ar
   177   175   176    2
   178   183   180    1
   179   180   179    1
   180   180   181    1
   181   181   182    2
