@<TRIPOS>MOLECULE
tmp/1z5lC03.pdb
 173 165 0 0 0
SMALL
GASTEIGER

@<TRIPOS>ATOM
      1  N         33.1820   37.4560   30.5810 N.3     4  PHE4       -0.1241
      2  CA        33.2570   38.6540   29.7470 C.3     4  PHE4        0.1605
      3  C         33.2430   38.2030   28.2900 C.2     4  PHE4        0.2264
      4  O         34.0240   37.3260   27.8960 O.2     4  PHE4       -0.2867
      5  CB        34.5470   39.3870   30.0700 C.3     4  PHE4        0.0534
      6  CG        34.7880   40.6110   29.2650 C.ar    4  PHE4       -0.0203
      7  CD1       34.0810   41.7670   29.5110 C.ar    4  PHE4       -0.0042
      8  CD2       35.7550   40.6140   28.2570 C.ar    4  PHE4       -0.0042
      9  CE1       34.3200   42.9130   28.7600 C.ar    4  PHE4       -0.0003
     10  CE2       35.9970   41.7400   27.5110 C.ar    4  PHE4       -0.0003
     11  CZ        35.2760   42.9040   27.7650 C.ar    4  PHE4       -0.0000
     12  N         32.9770   39.6180   24.1120 N.3     6  CYS6       -0.1235
     13  CA        32.8720   40.5210   22.9810 C.3     6  CYS6        0.1677
     14  C         32.2500   39.7130   21.8660 C.2     6  CYS6        0.2270
     15  O         32.7280   38.6350   21.4970 O.2     6  CYS6       -0.2867
     16  CB        34.2330   41.0560   22.5390 C.3     6  CYS6        0.0956
     17  SG        35.1000   41.9150   23.8650 S.3     6  CYS6       -0.0801
     18  N         30.9500   39.9650   18.0590 N.3     8  GLN8       -0.1245
     19  CA        31.0080   40.7030   16.7940 C.3     8  GLN8        0.1566
     20  C         30.0900   39.9950   15.8050 C.2     8  GLN8        0.2260
     21  O         30.0880   38.7580   15.7280 O.2     8  GLN8       -0.2867
     22  CB        32.4300   40.7500   16.2520 C.3     8  GLN8        0.0367
     23  CG        32.5800   41.5110   14.9630 C.3     8  GLN8        0.0905
     24  CD        33.9380   41.3210   14.3550 C.2     8  GLN8        0.2608
     25  OE1       34.0650   41.1830   13.1320 O.2     8  GLN8       -0.2717
     26  NE2       34.9640   41.3050   15.1920 N.am    8  GLN8       -0.0878
     27  N         29.3840   45.1140   17.0770 N.3    22  SER22      -0.1217
     28  CA        29.8010   44.4190   18.2760 C.3    22  SER22       0.1889
     29  C         29.0270   44.9230   19.4850 C.2    22  SER22       0.2288
     30  O         28.5670   46.0960   19.5550 O.2    22  SER22      -0.2866
     31  CB        31.2990   44.6150   18.5540 C.3    22  SER22       0.2089
     32  OG        32.1220   44.3830   17.4130 O.3    22  SER22      -0.2183
     33  N         29.3360   44.1710   23.9050 N.3    24  VAL24      -0.1245
     34  CA        30.0710   43.5030   24.9840 C.3    24  VAL24       0.1561
     35  C         29.2410   43.3630   26.2710 C.2    24  VAL24       0.2260
     36  O         28.4940   44.2810   26.6450 O.2    24  VAL24      -0.2867
     37  CB        31.6070   43.9460   25.1010 C.3    24  VAL24       0.0252
     38  CG1       31.9000   45.1930   24.3260 C.3    24  VAL24       0.0019
     39  CG2       32.1150   44.0270   26.5330 C.3    24  VAL24       0.0019
     40  N         29.4280   47.4730   26.5700 N.3    32  HIS32      -0.1241
     41  CA        29.8130   48.2390   25.3690 C.3    32  HIS32       0.1621
     42  C         28.9590   47.9710   24.1290 C.2    32  HIS32       0.2264
     43  O         28.2870   46.9490   24.0140 O.2    32  HIS32      -0.2867
     44  CB        31.2800   47.9930   24.9970 C.3    32  HIS32       0.0745
     45  CG        32.2620   48.2930   26.0900 C.ar   32  HIS32       0.0817
     46  ND1       32.5820   47.3870   27.0730 N.ar   32  HIS32      -0.2268
     47  CD2       32.9950   49.3990   26.3510 C.ar   32  HIS32       0.1154
     48  CE1       33.4700   47.9160   27.8930 C.ar   32  HIS32       0.1986
     49  NE2       33.7390   49.1390   27.4770 N.ar   32  HIS32      -0.2212
     50  N         29.3650   48.8060   19.7120 N.3    34  TRP34      -0.1241
     51  CA        30.0660   49.3770   18.5670 C.3    34  TRP34       0.1605
     52  C         29.3170   49.1580   17.2420 C.2    34  TRP34       0.2264
     53  O         29.4120   48.0880   16.6380 O.2    34  TRP34      -0.2867
     54  CB        31.4940   48.8290   18.4960 C.3    34  TRP34       0.0550
     55  CG        32.4160   49.6930   17.6980 C.ar   34  TRP34       0.0003
     56  CD1       32.2060   50.9870   17.3480 C.ar   34  TRP34       0.0946
     57  CD2       33.7040   49.3400   17.1710 C.ar   34  TRP34       0.0152
     58  NE1       33.2720   51.4630   16.6280 N.ar   34  TRP34      -0.2442
     59  CE2       34.2030   50.4700   16.5020 C.ar   34  TRP34       0.0810
     60  CE3       34.4800   48.1750   17.1820 C.ar   34  TRP34       0.0012
     61  CZ2       35.4440   50.4790   15.8590 C.ar   34  TRP34       0.0191
     62  CZ3       35.7110   48.1820   16.5410 C.ar   34  TRP34       0.0001
     63  CH2       36.1770   49.3340   15.8900 C.ar   34  TRP34       0.0015
     64  N         33.8620   53.2380   19.9300 N.3    41  ILE41      -0.1245
     65  CA        33.1500   52.3330   20.8240 C.3    41  ILE41       0.1561
     66  C         32.3950   53.1940   21.8200 C.2    41  ILE41       0.2260
     67  O         32.9470   54.1810   22.3470 O.2    41  ILE41      -0.2867
     68  CB        34.1680   51.4530   21.5770 C.3    41  ILE41       0.0252
     69  CG1       35.1400   50.7980   20.5900 C.3    41  ILE41       0.0019
     70  CG2       33.4550   50.4290   22.5070 C.3    41  ILE41       0.0019
     71  CD1       36.3580   50.1470   21.2280 C.3    41  ILE41       0.0001
     72  N         42.8030   53.9870   27.3280 N.3    57  TRP57      -0.1241
     73  CA        41.5660   53.5510   26.6580 C.3    57  TRP57       0.1605
     74  C         41.7010   53.7540   25.1440 C.2    57  TRP57       0.2264
     75  O         41.6600   52.8020   24.3730 O.2    57  TRP57      -0.2867
     76  CB        40.3020   54.2430   27.2320 C.3    57  TRP57       0.0550
     77  CG        39.1110   53.9820   26.3710 C.ar   57  TRP57       0.0003
     78  CD1       38.4430   54.8800   25.5850 C.ar   57  TRP57       0.0946
     79  CD2       38.4720   52.7450   26.1990 C.ar   57  TRP57       0.0152
     80  NE1       37.4130   54.2540   24.9320 N.ar   57  TRP57      -0.2442
     81  CE2       37.4130   52.9370   25.2980 C.ar   57  TRP57       0.0810
     82  CE3       38.6780   51.4610   26.7250 C.ar   57  TRP57       0.0012
     83  CZ2       36.5600   51.8880   24.9080 C.ar   57  TRP57       0.0191
     84  CZ3       37.8460   50.4410   26.3360 C.ar   57  TRP57       0.0001
     85  CH2       36.7970   50.6600   25.4410 C.ar   57  TRP57       0.0015
     86  N         43.8430   51.4380   23.1880 N.3    60  LEU60      -0.1245
     87  CA        43.1440   50.1470   23.0320 C.3    60  LEU60       0.1561
     88  C         42.0590   50.2500   21.9570 C.2    60  LEU60       0.2260
     89  O         41.8490   49.3660   21.1480 O.2    60  LEU60      -0.2867
     90  CB        42.5030   49.7570   24.3600 C.3    60  LEU60       0.0270
     91  CG        41.9250   48.3500   24.4890 C.3    60  LEU60       0.0019
     92  CD1       43.0490   47.3170   24.3760 C.3    60  LEU60       0.0001
     93  CD2       41.2100   48.1920   25.7960 C.3    60  LEU60       0.0001
     94  N         41.4080   48.5710   17.8990 N.3    64  PHE64      -0.1241
     95  CA        40.1750   47.9930   17.4180 C.3    64  PHE64       0.1605
     96  C         39.6950   48.6350   16.1350 C.2    64  PHE64       0.2264
     97  O         39.1560   47.9580   15.2800 O.2    64  PHE64      -0.2867
     98  CB        39.0990   47.9330   18.5170 C.3    64  PHE64       0.0534
     99  CG        39.2530   46.7470   19.4500 C.ar   64  PHE64      -0.0203
    100  CD1       38.9950   45.4480   19.0030 C.ar   64  PHE64      -0.0042
    101  CD2       39.6470   46.9230   20.7670 C.ar   64  PHE64      -0.0042
    102  CE1       39.1340   44.3350   19.8730 C.ar   64  PHE64      -0.0003
    103  CE2       39.7920   45.8470   21.6360 C.ar   64  PHE64      -0.0003
    104  CZ        39.5400   44.5470   21.2000 C.ar   64  PHE64      -0.0000
    105  N         41.7580   47.1800   13.4930 N.3    67  TYR67      -0.1241
    106  CA        41.3480   45.7700   13.3340 C.3    67  TYR67       0.1605
    107  C         40.0380   45.6460   12.5640 C.2    67  TYR67       0.2264
    108  O         39.9120   44.7850   11.7060 O.2    67  TYR67      -0.2867
    109  CB        41.2520   45.0710   14.6860 C.3    67  TYR67       0.0534
    110  CG        40.2360   43.9290   14.6960 C.ar   67  TYR67      -0.0201
    111  CD1       40.5390   42.6880   14.0960 C.ar   67  TYR67      -0.0009
    112  CD2       38.9730   44.0920   15.2950 C.ar   67  TYR67      -0.0009
    113  CE1       39.6060   41.6570   14.0950 C.ar   67  TYR67       0.0417
    114  CE2       38.0430   43.0610   15.3050 C.ar   67  TYR67       0.0417
    115  CZ        38.3630   41.8460   14.7040 C.ar   67  TYR67       0.1957
    116  OH        37.4530   40.8050   14.7000 O.3    67  TYR67      -0.2866
    117  N         31.9540   36.3900   15.8160 N.3    94  LEU94      -0.1245
    118  CA        33.0680   36.2040   16.7360 C.3    94  LEU94       0.1561
    119  C         32.6470   36.4260   18.1790 C.2    94  LEU94       0.2260
    120  O         31.9340   37.3770   18.4780 O.2    94  LEU94      -0.2867
    121  CB        34.2210   37.1670   16.4480 C.3    94  LEU94       0.0270
    122  CG        35.1950   36.8100   15.3630 C.3    94  LEU94       0.0019
    123  CD1       34.4890   36.7490   14.0470 C.3    94  LEU94       0.0001
    124  CD2       36.2400   37.8620   15.3400 C.3    94  LEU94       0.0001
    125  N         34.7230   36.5750   21.7710 N.3    96  ALA96      -0.1231
    126  CA        36.0480   36.6140   22.4020 C.3    96  ALA96       0.1694
    127  C         36.0040   37.1330   23.8370 C.2    96  ALA96       0.2592
    128  O         35.1560   37.9660   24.1840 O.2    96  ALA96      -0.2718
    129  CB        37.0190   37.4380   21.5750 C.3    96  ALA96       0.0304
    130  N         36.9130   36.6350   24.6730 N.am   97  GLY97      -0.1957
    131  CA        36.9790   37.0990   26.0530 C.3    97  GLY97       0.1869
    132  C         37.6120   36.1610   27.0560 C.2    97  GLY97       0.2309
    133  O         38.5650   35.4470   26.7640 O.2    97  GLY97      -0.2863
    134  N         46.2330   39.9630   23.7240 N.3   153  LEU153     -0.1231
    135  CA        44.8760   40.3160   24.0690 C.3   153  LEU153      0.1693
    136  C         44.1520   39.2880   24.9450 C.2   153  LEU153      0.2591
    137  O         43.3960   39.6680   25.8390 O.2   153  LEU153     -0.2718
    138  CB        44.0530   40.6320   22.8120 C.3   153  LEU153      0.0284
    139  CG        44.4590   41.8820   22.0260 C.3   153  LEU153      0.0019
    140  CD1       43.4560   42.0680   20.9090 C.3   153  LEU153      0.0001
    141  CD2       44.5120   43.1290   22.9210 C.3   153  LEU153      0.0001
    142  N         44.3910   38.0060   24.6880 N.am  154  LEU154     -0.1980
    143  CA        43.7260   36.9110   25.3860 C.3   154  LEU154      0.1596
    144  C         44.3680   36.5840   26.7020 C.2   154  LEU154      0.2287
    145  O         43.6830   36.5230   27.7280 O.2   154  LEU154     -0.2864
    146  CB        43.7090   35.6630   24.4990 C.3   154  LEU154      0.0297
    147  CG        42.5190   35.4880   23.5580 C.3   154  LEU154      0.0022
    148  CD1       41.8200   36.8040   23.1480 C.3   154  LEU154      0.0001
    149  CD2       42.8470   34.5860   22.3620 C.3   154  LEU154      0.0001
    150  N         45.7590   41.2940   28.2400 N.3   157  THR157     -0.1203
    151  CA        44.8930   42.4510   28.1210 C.3   157  THR157      0.1994
    152  C         43.4940   42.1840   28.6610 C.2   157  THR157      0.2618
    153  O         43.0100   42.9540   29.4860 O.2   157  THR157     -0.2717
    154  CB        44.8010   42.9050   26.6590 C.3   157  THR157      0.1784
    155  OG1       46.1080   42.9130   26.0650 O.3   157  THR157     -0.2211
    156  CG2       44.2900   44.3540   26.5840 C.3   157  THR157      0.0376
    157  N         42.8640   41.1030   28.1960 N.am  158  CYS158     -0.1969
    158  CA        41.4870   40.7400   28.6140 C.3   158  CYS158      0.1712
    159  C         41.3690   40.6050   30.1330 C.2   158  CYS158      0.2296
    160  O         40.6030   41.3570   30.7220 O.2   158  CYS158     -0.2864
    161  CB        40.9250   39.4820   27.9030 C.3   158  CYS158      0.0983
    162  SG        39.1680   39.0940   28.2740 S.3   158  CYS158     -0.0798
    163  N         41.9720   44.0210   32.0770 N.3   161  PHE161     -0.1241
    164  CA        40.8190   44.9060   31.8430 C.3   161  PHE161      0.1605
    165  C         39.6070   44.4450   32.6530 C.2   161  PHE161      0.2264
    166  O         38.9250   45.2360   33.3090 O.2   161  PHE161     -0.2867
    167  CB        40.4580   45.0100   30.3460 C.3   161  PHE161      0.0534
    168  CG        39.3290   45.9910   30.0420 C.ar  161  PHE161     -0.0203
    169  CD1       39.4780   47.3570   30.2740 C.ar  161  PHE161     -0.0042
    170  CD2       38.1190   45.5450   29.5210 C.ar  161  PHE161     -0.0042
    171  CE1       38.4390   48.2620   29.9970 C.ar  161  PHE161     -0.0003
    172  CE2       37.0750   46.4360   29.2390 C.ar  161  PHE161     -0.0003
    173  CZ        37.2420   47.7990   29.4780 C.ar  161  PHE161     -0.0000
@<TRIPOS>BOND
     1   108   107    2
     2   107   106    1
     3    25    24    2
     4   106   105    1
     5   106   109    1
     6   123   122    1
     7   113   111   ar
     8   113   115   ar
     9   111   110   ar
    10    24    23    1
    11    24    26   am
    12   109   110    1
    13   110   112   ar
    14   116   115    1
    15   115   114   ar
    16    23    22    1
    17    97    96    2
    18   112   114   ar
    19   124   122    1
    20   122   121    1
    21    21    20    2
    22    20    19    1
    23   117   118    1
    24    61    63   ar
    25    61    59   ar
    26    63    62   ar
    27    96    95    1
    28    22    19    1
    29   121   118    1
    30    59    58   ar
    31    59    57   ar
    32    62    60   ar
    33    58    56   ar
    34    53    52    2
    35   118   119    1
    36    19    18    1
    37    27    28    1
    38    57    60   ar
    39    57    55   ar
    40    52    51    1
    41    56    55   ar
    42    32    31    1
    43    95    94    1
    44    95    98    1
    45    55    54    1
    46   119   120    2
    47    28    31    1
    48    28    29    1
    49    54    51    1
    50    98    99    1
    51    51    50    1
    52   100    99   ar
    53   100   102   ar
    54    99   101   ar
    55    29    30    2
    56   102   104   ar
    57    64    65    1
    58    69    71    1
    59    69    68    1
    60   101   103   ar
    61    65    68    1
    62    65    66    1
    63   140   139    1
    64    89    88    2
    65   104   103   ar
    66    15    14    2
    67   129   126    1
    68    68    70    1
    69   125   126    1
    70    66    67    2
    71    14    13    1
    72    88    87    1
    73   139   138    1
    74   139   141    1
    75   149   147    1
    76   126   127    1
    77    16    13    1
    78    16    17    1
    79   138   135    1
    80    13    12    1
    81    87    86    1
    82    87    90    1
    83   148   147    1
    84   147   146    1
    85   134   135    1
    86   127   128    2
    87   127   130   am
    88    33    34    1
    89    43    42    2
    90   135   136    1
    91    42    41    1
    92    38    37    1
    93    90    91    1
    94    75    74    2
    95    92    91    1
    96    91    93    1
    97   146   143    1
    98   130   131    1
    99   142   136   am
   100   142   143    1
   101    83    81   ar
   102    83    85   ar
   103    80    81   ar
   104    80    78   ar
   105   136   137    2
   106    34    37    1
   107    34    35    1
   108    44    41    1
   109    44    45    1
   110    37    39    1
   111    74    73    1
   112    81    79   ar
   113    41    40    1
   114   143   144    1
   115    85    84   ar
   116    78    77   ar
   117   131   132    1
   118   155   154    1
   119    45    47   ar
   120    45    46   ar
   121    79    77   ar
   122    79    82   ar
   123    35    36    2
   124    84    82   ar
   125    47    49   ar
   126    77    76    1
   127   156   154    1
   128    73    76    1
   129    73    72    1
   130   154   151    1
   131   144   145    2
   132   133   132    2
   133    46    48   ar
   134    49    48   ar
   135    10    11   ar
   136    10     8   ar
   137    11     9   ar
   138     4     3    2
   139   161   162    1
   140   161   158    1
   141   151   150    1
   142   151   152    1
   143   157   158    1
   144   157   152   am
   145     8     6   ar
   146     3     2    1
   147   158   159    1
   148   152   153    2
   149     9     7   ar
   150   172   173   ar
   151   172   170   ar
   152     6     7   ar
   153     6     5    1
   154   173   171   ar
   155   170   168   ar
   156     2     5    1
   157     2     1    1
   158   171   169   ar
   159   168   169   ar
   160   168   167    1
   161   159   160    2
   162   167   164    1
   163   164   163    1
   164   164   165    1
   165   165   166    2
