@<TRIPOS>MOLECULE
tmp/1z5mA00.pdb
 189 177 0 0 0
SMALL
GASTEIGER

@<TRIPOS>ATOM
      1  N         -7.0650   40.3670   55.3950 N.3    13  LYS13      -0.1245
      2  CA        -5.7900   40.9220   54.9380 C.3    13  LYS13       0.1561
      3  C         -5.9100   41.9230   53.8000 C.2    13  LYS13       0.2260
      4  O         -6.8620   41.8780   53.0160 O.2    13  LYS13      -0.2867
      5  CB        -4.8580   39.7880   54.4860 C.3    13  LYS13       0.0271
      6  CG        -5.2580   39.0600   53.2140 C.3    13  LYS13       0.0035
      7  CD        -4.4760   37.7490   53.0920 C.3    13  LYS13       0.0206
      8  CE        -4.8890   36.9190   51.8620 C.3    13  LYS13       0.1093
      9  NZ        -4.0620   37.1100   50.6030 N.3    13  LYS13      -0.1314
     10  N         -4.9670   43.4450   50.2370 N.3    15  LEU15      -0.1231
     11  CA        -4.6180   42.9070   48.9140 C.3    15  LEU15       0.1693
     12  C         -3.7250   43.8350   48.0980 C.2    15  LEU15       0.2593
     13  O         -2.9960   43.3740   47.2180 O.2    15  LEU15      -0.2718
     14  CB        -5.8920   42.5610   48.1330 C.3    15  LEU15       0.0284
     15  CG        -6.8110   41.5390   48.8390 C.3    15  LEU15       0.0019
     16  CD1       -8.0980   41.3620   48.0790 C.3    15  LEU15       0.0001
     17  CD2       -6.1200   40.1840   49.0050 C.3    15  LEU15       0.0001
     18  N         -3.8110   45.1410   48.3680 N.am   16  GLY16      -0.1942
     19  CA        -3.0130   46.1250   47.6540 C.3    16  GLY16       0.2014
     20  C         -3.1060   47.5200   48.2510 C.2    16  GLY16       0.2639
     21  O         -4.1340   47.8980   48.8000 O.2    16  GLY16      -0.2714
     22  N         -2.0360   48.2960   48.1480 N.am   17  GLU17      -0.1963
     23  CA        -2.0220   49.6560   48.6790 C.3    17  GLU17       0.1733
     24  C         -1.5410   50.6260   47.6450 C.2    17  GLU17       0.2616
     25  O         -0.4580   50.4530   47.0890 O.2    17  GLU17      -0.2715
     26  CB        -1.1240   49.7500   49.8960 C.3    17  GLU17       0.0429
     27  CG        -1.6040   48.8710   51.0180 C.3    17  GLU17       0.1163
     28  CD        -0.9270   49.1770   52.3100 C.2    17  GLU17       0.3649
     29  OE1       -1.2520   50.2310   52.9000 O.co2  17  GLU17      -0.2457
     30  OE2       -0.0730   48.3650   52.7360 O.co2  17  GLU17      -0.2457
     31  N         -2.4000   51.5740   47.2940 N.am   18  GLY18      -0.1955
     32  CA        -2.0270   52.5830   46.3210 C.3    18  GLY18       0.1869
     33  C         -1.7950   53.8390   47.1200 C.2    18  GLY18       0.2309
     34  O         -1.8200   53.7780   48.3540 O.2    18  GLY18      -0.2863
     35  N         -5.6360   54.6270   47.8740 N.3    21  SER21      -0.1217
     36  CA        -6.5030   53.5180   48.2860 C.3    21  SER21       0.1889
     37  C         -5.7900   52.3230   48.8890 C.2    21  SER21       0.2288
     38  O         -4.5700   52.2110   48.8240 O.2    21  SER21      -0.2866
     39  CB        -7.2990   53.0290   47.0680 C.3    21  SER21       0.2089
     40  OG        -6.4520   52.9310   45.9310 O.3    21  SER21      -0.2183
     41  N         -6.9560   48.0510   48.9890 N.3    23  VAL23      -0.1245
     42  CA        -7.9880   47.0610   48.6530 C.3    23  VAL23       0.1561
     43  C         -7.8830   46.0120   49.7800 C.2    23  VAL23       0.2260
     44  O         -6.7810   45.5550   50.0770 O.2    23  VAL23      -0.2867
     45  CB        -7.7560   46.4390   47.2460 C.3    23  VAL23       0.0252
     46  CG1       -8.8440   45.3940   46.9280 C.3    23  VAL23       0.0019
     47  CG2       -7.7860   47.5370   46.1800 C.3    23  VAL23       0.0019
     48  N        -13.2210   41.9700   47.1870 N.3    36  ALA36      -0.1245
     49  CA       -11.9960   42.7490   47.3800 C.3    36  ALA36       0.1562
     50  C        -12.5010   44.1810   47.5550 C.2    36  ALA36       0.2260
     51  O        -12.9110   44.7960   46.5810 O.2    36  ALA36      -0.2867
     52  CB       -11.0890   42.6490   46.1820 C.3    36  ALA36       0.0290
     53  N        -12.2000   48.0440   47.9940 N.3    38  LYS38      -0.1245
     54  CA       -11.3160   49.1940   47.8430 C.3    38  LYS38       0.1561
     55  C        -11.7840   50.2450   48.8470 C.2    38  LYS38       0.2260
     56  O        -12.9520   50.6230   48.8270 O.2    38  LYS38      -0.2867
     57  CB       -11.4410   49.7370   46.4130 C.3    38  LYS38       0.0271
     58  CG       -10.2380   50.4750   45.8960 C.3    38  LYS38       0.0035
     59  CD       -10.3160   50.5520   44.3910 C.3    38  LYS38       0.0206
     60  CE        -9.0030   51.0160   43.7600 C.3    38  LYS38       0.1093
     61  NZ        -9.0050   50.8870   42.2640 N.3    38  LYS38      -0.1314
     62  N        -12.3620   43.3120   36.4180 N.3    70  VAL70      -0.1245
     63  CA       -12.8340   43.2180   37.7950 C.3    70  VAL70       0.1561
     64  C        -14.1850   43.9530   37.7990 C.2    70  VAL70       0.2260
     65  O        -14.3160   45.0380   37.2310 O.2    70  VAL70      -0.2867
     66  CB       -11.8220   43.8730   38.7520 C.3    70  VAL70       0.0252
     67  CG1      -12.3990   44.0260   40.1100 C.3    70  VAL70       0.0019
     68  CG2      -10.5710   43.0170   38.8500 C.3    70  VAL70       0.0019
     69  N        -15.4460   45.0820   45.0700 N.3    86  LEU86      -0.1231
     70  CA       -15.0040   44.5610   43.7790 C.3    86  LEU86       0.1693
     71  C        -14.7990   43.0360   43.7360 C.2    86  LEU86       0.2593
     72  O        -14.8220   42.3710   44.7660 O.2    86  LEU86      -0.2718
     73  CB       -13.6740   45.2420   43.3860 C.3    86  LEU86       0.0284
     74  CG       -13.5600   46.7750   43.4670 C.3    86  LEU86       0.0019
     75  CD1      -12.1660   47.2190   43.0530 C.3    86  LEU86       0.0001
     76  CD2      -14.5810   47.4330   42.5830 C.3    86  LEU86       0.0001
     77  N        -14.6020   42.4970   42.5270 N.am   87  SER87      -0.1938
     78  CA       -14.3410   41.0820   42.3410 C.3    87  SER87       0.2055
     79  C        -13.0120   40.7940   42.9950 C.2    87  SER87       0.2643
     80  O        -12.0300   41.5140   42.7900 O.2    87  SER87      -0.2714
     81  CB       -14.1830   40.7340   40.8590 C.3    87  SER87       0.2130
     82  OG       -15.3730   40.9220   40.1090 O.3    87  SER87      -0.2179
     83  N        -12.9910   39.7410   43.7990 N.am   88  TYR88      -0.1959
     84  CA       -11.7930   39.2890   44.4630 C.3    88  TYR88       0.1771
     85  C        -11.1200   38.3320   43.4750 C.2    88  TYR88       0.2619
     86  O        -11.6740   37.2770   43.1510 O.2    88  TYR88      -0.2715
     87  CB       -12.1660   38.5440   45.7640 C.3    88  TYR88       0.0574
     88  CG       -11.0130   37.8100   46.4550 C.ar   88  TYR88      -0.0198
     89  CD1       -9.7210   38.3570   46.4860 C.ar   88  TYR88      -0.0009
     90  CD2      -11.2050   36.5390   47.0150 C.ar   88  TYR88      -0.0009
     91  CE1       -8.6620   37.6710   47.0380 C.ar   88  TYR88       0.0417
     92  CE2      -10.1390   35.8370   47.5800 C.ar   88  TYR88       0.0417
     93  CZ        -8.8670   36.4090   47.5890 C.ar   88  TYR88       0.1957
     94  OH        -7.8010   35.7280   48.1530 O.3    88  TYR88      -0.2866
     95  N        -10.0020   38.7700   42.9040 N.am   89  ALA89      -0.1963
     96  CA        -9.2000   37.9740   41.9780 C.3    89  ALA89       0.1728
     97  C         -8.2530   37.1240   42.8420 C.2    89  ALA89       0.2616
     98  O         -7.1460   37.5370   43.1520 O.2    89  ALA89      -0.2715
     99  CB        -8.3920   38.8820   41.0660 C.3    89  ALA89       0.0334
    100  N         -8.6970   35.9290   43.2050 N.am   90  LYS90      -0.1963
    101  CA        -7.9380   35.0000   44.0440 C.3    90  LYS90       0.1728
    102  C         -6.4400   34.8840   43.8270 C.2    90  LYS90       0.2616
    103  O         -5.6710   34.8920   44.8010 O.2    90  LYS90      -0.2715
    104  CB        -8.5340   33.5950   43.9360 C.3    90  LYS90       0.0311
    105  CG        -9.1560   33.0530   45.1980 C.3    90  LYS90       0.0038
    106  CD        -8.1200   32.6780   46.2430 C.3    90  LYS90       0.0206
    107  CE        -8.7060   31.7160   47.3070 C.3    90  LYS90       0.1093
    108  NZ        -9.8730   32.2070   48.1280 N.3    90  LYS90      -0.1314
    109  N         -6.0180   34.7340   42.5750 N.am   91  ASN91      -0.1958
    110  CA        -4.6000   34.5540   42.3050 C.3    91  ASN91       0.1819
    111  C         -3.7200   35.7890   42.2550 C.2    91  ASN91       0.2622
    112  O         -2.5140   35.6930   42.0320 O.2    91  ASN91      -0.2715
    113  CB        -4.3990   33.6750   41.0860 C.3    91  ASN91       0.1195
    114  CG        -4.8570   32.2510   41.3310 C.2    91  ASN91       0.2630
    115  OD1       -4.5740   31.6640   42.3800 O.2    91  ASN91      -0.2716
    116  ND2       -5.5740   31.6880   40.3730 N.am   91  ASN91      -0.0877
    117  N         -4.3210   36.9460   42.4680 N.am   92  GLY92      -0.1940
    118  CA        -3.5590   38.1730   42.4740 C.3    92  GLY92       0.2014
    119  C         -2.9300   38.6480   41.1820 C.2    92  GLY92       0.2638
    120  O         -3.3610   38.3000   40.0960 O.2    92  GLY92      -0.2714
    121  N         -1.8620   39.4230   41.3410 N.am   93  GLU93      -0.1977
    122  CA        -1.1020   40.0440   40.2640 C.3    93  GLU93       0.1602
    123  C         -0.3250   39.1510   39.3220 C.2    93  GLU93       0.2287
    124  O          0.3750   38.2340   39.7450 O.2    93  GLU93      -0.2864
    125  CB        -0.1430   41.0560   40.8610 C.3    93  GLU93       0.0415
    126  CG        -0.8440   42.1680   41.6190 C.3    93  GLU93       0.1163
    127  CD         0.1060   43.2660   42.0150 C.2    93  GLU93       0.3649
    128  OE1        1.3310   43.1300   41.7640 O.co2  93  GLU93      -0.2457
    129  OE2       -0.3720   44.2680   42.5750 O.co2  93  GLU93      -0.2457
    130  N          3.6760   38.5860   39.7130 N.3    96  LYS96      -0.1245
    131  CA         4.1940   37.5350   40.5830 C.3    96  LYS96       0.1561
    132  C          4.5370   36.2610   39.8120 C.2    96  LYS96       0.2260
    133  O          5.5490   35.6250   40.0910 O.2    96  LYS96      -0.2867
    134  CB         3.2010   37.2230   41.7020 C.3    96  LYS96       0.0271
    135  CG         3.0100   38.3550   42.6820 C.3    96  LYS96       0.0035
    136  CD         3.4080   37.9220   44.0910 C.3    96  LYS96       0.0206
    137  CE         4.8890   37.5230   44.1840 C.3    96  LYS96       0.1093
    138  NZ         5.2270   36.8430   45.4760 N.3    96  LYS96      -0.1314
    139  N          7.6740   36.8290   37.7560 N.3    99  ARG99      -0.1245
    140  CA         8.8320   36.7040   38.6230 C.3    99  ARG99       0.1563
    141  C          8.9780   35.2880   39.1600 C.2    99  ARG99       0.2260
    142  O         10.0590   34.7170   39.1560 O.2    99  ARG99      -0.2867
    143  CB         8.7450   37.7130   39.7680 C.3    99  ARG99       0.0307
    144  CG         8.9620   39.1550   39.3080 C.3    99  ARG99       0.0489
    145  CD         8.9490   40.1550   40.4590 C.3    99  ARG99       0.2205
    146  NE         7.6450   40.2310   41.1230 N.pl3  99  ARG99      -0.0865
    147  CZ         7.1440   41.3350   41.6800 C.cat  99  ARG99       0.5346
    148  NH1        7.8350   42.4720   41.6540 N.pl3  99  ARG99       0.1354
    149  NH2        5.9500   41.3030   42.2700 N.pl3  99  ARG99       0.1354
    150  N          0.9410   44.6950   37.0630 N.3   136  GLU136     -0.1231
    151  CA         0.4980   44.8870   38.4270 C.3   136  GLU136      0.1699
    152  C         -1.0250   45.1720   38.4420 C.2   136  GLU136      0.2592
    153  O         -1.7030   44.9280   39.4450 O.2   136  GLU136     -0.2718
    154  CB         1.3060   46.0140   39.0790 C.3   136  GLU136      0.0402
    155  CG         2.8180   45.7360   39.1280 C.3   136  GLU136      0.1161
    156  CD         3.6240   46.2550   37.9030 C.2   136  GLU136      0.3649
    157  OE1        3.4880   45.7040   36.7810 O.co2 136  GLU136     -0.2457
    158  OE2        4.4410   47.1980   38.0780 O.co2 136  GLU136     -0.2457
    159  N         -1.5530   45.6070   37.2950 N.am  137  ASN137     -0.1974
    160  CA        -2.9790   45.9290   37.1170 C.3   137  ASN137      0.1688
    161  C         -3.8020   44.7840   36.5400 C.2   137  ASN137      0.2292
    162  O         -5.0330   44.8640   36.4660 O.2   137  ASN137     -0.2864
    163  CB        -3.1260   47.1200   36.1670 C.3   137  ASN137      0.1181
    164  CG        -2.8740   48.4230   36.8480 C.2   137  ASN137      0.2629
    165  OD1       -2.9740   48.5370   38.0910 O.2   137  ASN137     -0.2716
    166  ND2       -2.5460   49.4260   36.0630 N.am  137  ASN137     -0.0877
    167  N         -4.8360   41.1070   36.9600 N.3   139  LEU139     -0.1245
    168  CA        -4.9210   40.0700   37.9750 C.3   139  LEU139      0.1561
    169  C         -5.3590   38.7370   37.3640 C.2   139  LEU139      0.2260
    170  O         -5.7440   38.6830   36.1850 O.2   139  LEU139     -0.2867
    171  CB        -5.8540   40.5060   39.1090 C.3   139  LEU139      0.0270
    172  CG        -5.8260   41.9620   39.5830 C.3   139  LEU139      0.0019
    173  CD1       -6.9620   42.1840   40.5390 C.3   139  LEU139      0.0001
    174  CD2       -4.5220   42.3340   40.2300 C.3   139  LEU139      0.0001
    175  N         -7.8550   45.6840   36.3490 N.3   149  THR149     -0.1203
    176  CA        -8.3970   46.6860   37.2640 C.3   149  THR149      0.1994
    177  C         -7.6240   48.0100   37.2500 C.2   149  THR149      0.2617
    178  O         -6.9030   48.2870   36.2970 O.2   149  THR149     -0.2717
    179  CB        -8.4640   46.1450   38.7160 C.3   149  THR149      0.1784
    180  OG1       -9.1910   47.0820   39.5230 O.3   149  THR149     -0.2211
    181  CG2       -7.0560   45.9180   39.2840 C.3   149  THR149      0.0376
    182  N         -7.8640   48.8650   38.2410 N.am  150  ASP150     -0.1973
    183  CA        -7.1600   50.1500   38.3740 C.3   150  ASP150      0.1709
    184  C         -7.5690   51.1320   37.3010 C.2   150  ASP150      0.2293
    185  O         -6.7830   51.4460   36.4150 O.2   150  ASP150     -0.2864
    186  CB        -5.6420   49.9150   38.3410 C.3   150  ASP150      0.1436
    187  CG        -4.8190   51.1590   38.7120 C.2   150  ASP150      0.3671
    188  OD1       -5.2450   51.9300   39.6030 O.co2 150  ASP150     -0.2456
    189  OD2       -3.7260   51.3520   38.1210 O.co2 150  ASP150     -0.2456
@<TRIPOS>BOND
     1   166   164   am
     2   163   164    1
     3   163   160    1
     4   170   169    2
     5   178   177    2
     6   175   176    1
     7   185   184    2
     8    62    63    1
     9   162   161    2
    10   161   160    1
    11   157   156   ar
    12   164   165    2
    13   167   168    1
    14   150   151    1
    15   160   159    1
    16    65    64    2
    17   177   176    1
    18   177   182   am
    19   176   179    1
    20   159   152   am
    21   184   183    1
    22   169   168    1
    23   139   140    1
    24    63    64    1
    25    63    66    1
    26   156   158   ar
    27   156   155    1
    28   168   171    1
    29   189   187   ar
    30   182   183    1
    31   186   183    1
    32   186   187    1
    33   151   152    1
    34   151   154    1
    35   152   153    2
    36   140   141    1
    37   140   143    1
    38   187   188   ar
    39   179   181    1
    40   179   180    1
    41    66    68    1
    42    66    67    1
    43   154   155    1
    44   171   172    1
    45   142   141    2
    46   144   143    1
    47   144   145    1
    48   123   124    2
    49   123   122    1
    50   172   174    1
    51   172   173    1
    52   130   131    1
    53   132   133    2
    54   132   131    1
    55   120   119    2
    56    82    81    1
    57   122   125    1
    58   122   121    1
    59   116   114   am
    60   145   146    1
    61   131   134    1
    62    81    78    1
    63   125   126    1
    64    99    96    1
    65   113   114    1
    66   113   110    1
    67   146   147    2
    68   119   121   am
    69   119   118    1
    70   114   115    2
    71   126   127    1
    72   148   147    1
    73   147   149    1
    74   134   135    1
    75   128   127   ar
    76    96    97    1
    77    96    95    1
    78   127   129   ar
    79   112   111    2
    80   111   110    1
    81   111   117   am
    82    61    60    1
    83   110   109    1
    84    78    77    1
    85    78    79    1
    86   117   118    1
    87    77    71   am
    88   109   102   am
    89    76    74    1
    90   135   136    1
    91    80    79    2
    92    97    98    2
    93    97   100   am
    94    95    85   am
    95    79    83   am
    96    75    74    1
    97    86    85    2
    98   100   101    1
    99    73    74    1
   100    73    70    1
   101    85    84    1
   102    71    70    1
   103    71    72    2
   104    60    59    1
   105    70    69    1
   106    83    84    1
   107   102   101    1
   108   102   103    2
   109   104   101    1
   110   104   105    1
   111   136   137    1
   112   137   138    1
   113    59    58    1
   114    84    87    1
   115   105   106    1
   116    87    88    1
   117    58    57    1
   118    40    39    1
   119    47    45    1
   120    52    49    1
   121   106   107    1
   122    32    33    1
   123    32    31    1
   124    57    54    1
   125    88    89   ar
   126    88    90   ar
   127    89    91   ar
   128    51    50    2
   129    46    45    1
   130    90    92   ar
   131    91    93   ar
   132    39    36    1
   133    25    24    2
   134    33    34    2
   135    48    49    1
   136    13    12    2
   137    45    42    1
   138    31    24   am
   139   107   108    1
   140    49    50    1
   141    92    93   ar
   142    93    94    1
   143    24    23    1
   144    19    20    1
   145    19    18    1
   146    54    53    1
   147    54    55    1
   148    35    36    1
   149    16    15    1
   150    12    18   am
   151    12    11    1
   152    14    15    1
   153    14    11    1
   154    22    20   am
   155    22    23    1
   156    20    21    2
   157    36    37    1
   158    42    41    1
   159    42    43    1
   160    23    26    1
   161    38    37    2
   162    56    55    2
   163    15    17    1
   164    11    10    1
   165    43    44    2
   166    26    27    1
   167     9     8    1
   168    27    28    1
   169     8     7    1
   170    28    30   ar
   171    28    29   ar
   172     4     3    2
   173     7     6    1
   174     6     5    1
   175     3     2    1
   176     5     2    1
   177     2     1    1
