@<TRIPOS>MOLECULE
tmp/1z5nA00.pdb
 100 94 0 0 0
SMALL
GASTEIGER

@<TRIPOS>ATOM
      1  N         65.1320   73.1790   25.1100 N.3    10  ALA10      -0.1231
      2  CA        64.1990   72.4320   25.9310 C.3    10  ALA10       0.1694
      3  C         64.3480   70.9080   25.9290 C.2    10  ALA10       0.2591
      4  O         64.6010   70.3110   26.9760 O.2    10  ALA10      -0.2718
      5  CB        62.7890   72.8060   25.5250 C.3    10  ALA10       0.0304
      6  N         64.1830   70.2740   24.7680 N.am   11  MET11      -0.1979
      7  CA        64.2640   68.8170   24.6720 C.3    11  MET11       0.1605
      8  C         65.6460   68.3130   24.2700 C.2    11  MET11       0.2287
      9  O         66.4290   69.0400   23.6480 O.2    11  MET11      -0.2864
     10  CB        63.2540   68.2980   23.6450 C.3    11  MET11       0.0413
     11  CG        61.8090   68.6950   23.8910 C.3    11  MET11       0.0598
     12  SD        60.8500   68.2960   22.4270 S.3    11  MET11      -0.1393
     13  CE        60.8440   66.4880   22.5730 C.3    11  MET11       0.0692
     14  N         66.3860   68.4540   20.7510 N.3    14  GLN14      -0.1245
     15  CA        66.7030   69.8080   20.3180 C.3    14  GLN14       0.1566
     16  C         68.1120   70.3110   20.6560 C.2    14  GLN14       0.2260
     17  O         68.5130   71.3440   20.1430 O.2    14  GLN14      -0.2867
     18  CB        65.6680   70.8040   20.8580 C.3    14  GLN14       0.0367
     19  CG        64.3080   70.6980   20.1730 C.3    14  GLN14       0.0905
     20  CD        63.2970   71.6880   20.7110 C.2    14  GLN14       0.2608
     21  OE1       62.0900   71.4430   20.6840 O.2    14  GLN14      -0.2717
     22  NE2       63.7870   72.8180   21.2090 N.am   14  GLN14      -0.0878
     23  N         60.6940   71.2130   29.0700 N.3    52  ILE52      -0.1245
     24  CA        59.6460   71.9680   28.4190 C.3    52  ILE52       0.1561
     25  C         58.8520   72.9000   29.3120 C.2    52  ILE52       0.2260
     26  O         58.6280   72.5940   30.4910 O.2    52  ILE52      -0.2867
     27  CB        58.6990   70.9360   27.7140 C.3    52  ILE52       0.0252
     28  CG1       59.4640   70.2780   26.5530 C.3    52  ILE52       0.0019
     29  CG2       57.4080   71.5870   27.2670 C.3    52  ILE52       0.0019
     30  CD1       58.8280   69.0050   25.9830 C.3    52  ILE52       0.0001
     31  N         62.5540   74.4770   18.4740 N.3    78  SER78      -0.1202
     32  CA        61.6440   74.5770   17.3550 C.3    78  SER78       0.2020
     33  C         60.4910   75.5100   17.6780 C.2    78  SER78       0.2618
     34  O         60.4370   76.0530   18.7690 O.2    78  SER78      -0.2717
     35  CB        61.1570   73.1790   16.9470 C.3    78  SER78       0.2103
     36  OG        60.4550   72.5600   18.0010 O.3    78  SER78      -0.2182
     37  N         59.6010   75.7360   16.7140 N.am   79  ALA79      -0.1979
     38  CA        58.4760   76.6240   16.9450 C.3    79  ALA79       0.1597
     39  C         57.3860   76.4020   15.9120 C.2    79  ALA79       0.2287
     40  O         57.6330   75.8110   14.8670 O.2    79  ALA79      -0.2864
     41  CB        58.9470   78.0940   16.9250 C.3    79  ALA79       0.0319
     42  N         50.8250   73.4990   23.8350 N.3   153  PHE153     -0.1241
     43  CA        51.2240   73.1710   22.4840 C.3   153  PHE153      0.1605
     44  C         50.0070   73.5060   21.6130 C.2   153  PHE153      0.2264
     45  O         48.9990   72.8290   21.6700 O.2   153  PHE153     -0.2867
     46  CB        51.6030   71.6940   22.3500 C.3   153  PHE153      0.0534
     47  CG        52.0690   71.3160   20.9540 C.ar  153  PHE153     -0.0203
     48  CD1       51.1560   70.8890   19.9830 C.ar  153  PHE153     -0.0042
     49  CD2       53.4020   71.4440   20.5960 C.ar  153  PHE153     -0.0042
     50  CE1       51.5700   70.6010   18.6740 C.ar  153  PHE153     -0.0003
     51  CE2       53.8290   71.1640   19.2930 C.ar  153  PHE153     -0.0003
     52  CZ        52.9160   70.7440   18.3270 C.ar  153  PHE153     -0.0000
     53  N         55.8910   79.2770   20.7740 N.3   174  GLU174     -0.1231
     54  CA        56.5470   78.1250   21.3810 C.3   174  GLU174      0.1699
     55  C         56.3590   78.1770   22.8960 C.2   174  GLU174      0.2592
     56  O         55.4390   78.8500   23.3780 O.2   174  GLU174     -0.2718
     57  CB        58.0260   78.0160   20.9600 C.3   174  GLU174      0.0402
     58  CG        58.8040   79.3190   20.9820 C.3   174  GLU174      0.1161
     59  CD        58.8650   79.9180   22.3560 C.2   174  GLU174      0.3649
     60  OE1       58.0980   80.8640   22.6290 O.co2 174  GLU174     -0.2457
     61  OE2       59.6770   79.4330   23.1660 O.co2 174  GLU174     -0.2457
     62  N         57.2180   77.5150   23.6650 N.am  175  MET175     -0.1965
     63  CA        56.9740   77.4380   25.1060 C.3   175  MET175      0.1736
     64  C         58.0440   77.8160   26.1350 C.2   175  MET175      0.2616
     65  O         57.8250   77.5650   27.3360 O.2   175  MET175     -0.2715
     66  CB        56.4920   76.0130   25.4180 C.3   175  MET175      0.0427
     67  CG        55.3200   75.5390   24.5380 C.3   175  MET175      0.0599
     68  SD        54.9740   73.7630   24.6030 S.3   175  MET175     -0.1393
     69  CE        54.3890   73.5570   26.2670 C.3   175  MET175      0.0692
     70  N         59.1860   78.3710   25.7050 N.am  176  GLU176     -0.1977
     71  CA        60.2390   78.7750   26.6580 C.3   176  GLU176      0.1602
     72  C         60.8570   80.1610   26.4580 C.2   176  GLU176      0.2287
     73  O         61.3260   80.7900   27.4190 O.2   176  GLU176     -0.2864
     74  CB        61.4010   77.7630   26.6930 C.3   176  GLU176      0.0415
     75  CG        61.0460   76.3240   27.0720 C.3   176  GLU176      0.1163
     76  CD        60.5000   75.5380   25.8850 C.2   176  GLU176      0.3649
     77  OE1       61.0070   75.7500   24.7580 O.co2 176  GLU176     -0.2457
     78  OE2       59.5850   74.6980   26.0710 O.co2 176  GLU176     -0.2457
     79  N         65.0430   80.0060   16.3310 N.3   195  ARG195     -0.1245
     80  CA        64.4070   78.7040   16.2270 C.3   195  ARG195      0.1563
     81  C         64.0190   78.3260   14.7930 C.2   195  ARG195      0.2260
     82  O         63.8810   79.1830   13.9140 O.2   195  ARG195     -0.2867
     83  CB        63.1720   78.6700   17.1400 C.3   195  ARG195      0.0307
     84  CG        63.4920   78.6270   18.6420 C.3   195  ARG195      0.0489
     85  CD        62.2450   78.9190   19.4820 C.3   195  ARG195      0.2205
     86  NE        62.4420   78.7880   20.9220 N.pl3 195  ARG195     -0.0865
     87  CZ        62.0390   77.7520   21.6570 C.cat 195  ARG195      0.5346
     88  NH1       61.4060   76.7350   21.0980 N.pl3 195  ARG195      0.1354
     89  NH2       62.2690   77.7370   22.9690 N.pl3 195  ARG195      0.1354
     90  N         54.9830   68.1640   13.8360 N.3   209  PHE209     -0.1241
     91  CA        56.0700   68.2480   14.8350 C.3   209  PHE209      0.1605
     92  C         56.8080   66.9180   14.8500 C.2   209  PHE209      0.2264
     93  O         58.0360   66.8850   14.7480 O.2   209  PHE209     -0.2867
     94  CB        55.4840   68.5420   16.2300 C.3   209  PHE209      0.0534
     95  CG        56.5140   68.8300   17.2950 C.ar  209  PHE209     -0.0203
     96  CD1       57.0000   70.1130   17.4830 C.ar  209  PHE209     -0.0042
     97  CD2       56.9580   67.8230   18.1370 C.ar  209  PHE209     -0.0042
     98  CE1       57.9110   70.3880   18.5020 C.ar  209  PHE209     -0.0003
     99  CE2       57.8710   68.0880   19.1610 C.ar  209  PHE209     -0.0003
    100  CZ        58.3470   69.3670   19.3490 C.ar  209  PHE209     -0.0000
@<TRIPOS>BOND
     1    90    91    1
     2    82    81    2
     3    93    92    2
     4    81    80    1
     5    91    92    1
     6    91    94    1
     7    40    39    2
     8    39    38    1
     9    80    79    1
    10    80    83    1
    11    94    95    1
    12    37    38    1
    13    37    33   am
    14    41    38    1
    15    35    32    1
    16    35    36    1
    17    83    84    1
    18    95    96   ar
    19    95    97   ar
    20    32    33    1
    21    32    31    1
    22    96    98   ar
    23    33    34    2
    24    97    99   ar
    25    52    50   ar
    26    52    51   ar
    27    98   100   ar
    28    84    85    1
    29    50    48   ar
    30    99   100   ar
    31    51    49   ar
    32    85    86    1
    33    48    47   ar
    34    17    16    2
    35    19    20    1
    36    19    18    1
    37    15    16    1
    38    15    14    1
    39    15    18    1
    40    49    47   ar
    41    21    20    2
    42    20    22   am
    43    53    54    1
    44    86    87    2
    45    47    46    1
    46    57    58    1
    47    57    54    1
    48    58    59    1
    49    88    87    1
    50    54    55    1
    51    44    45    2
    52    44    43    1
    53    87    89    1
    54    46    43    1
    55    59    60   ar
    56    59    61   ar
    57    12    13    1
    58    12    11    1
    59    43    42    1
    60    55    56    2
    61    55    62   am
    62    10    11    1
    63    10     7    1
    64     9     8    2
    65    62    63    1
    66     8     7    1
    67    67    68    1
    68    67    66    1
    69    68    69    1
    70     7     6    1
    71    77    76   ar
    72     6     3   am
    73    63    66    1
    74    63    64    1
    75     1     2    1
    76     5     2    1
    77    70    64   am
    78    70    71    1
    79    76    78   ar
    80    76    75    1
    81     3     2    1
    82     3     4    2
    83    30    28    1
    84    64    65    2
    85    72    71    1
    86    72    73    2
    87    28    27    1
    88    71    74    1
    89    74    75    1
    90    29    27    1
    91    27    24    1
    92    24    23    1
    93    24    25    1
    94    25    26    2
