@<TRIPOS>MOLECULE
tmp/1z5uD00.pdb
 173 165 0 0 0
SMALL
GASTEIGER

@<TRIPOS>ATOM
      1  N          8.5590   19.6520   40.5450 N.3    42  ASP42      -0.1239
      2  CA         9.0550   20.9870   40.2900 C.3    42  ASP42       0.1674
      3  C         10.0780   20.6700   39.1870 C.2    42  ASP42       0.2266
      4  O         10.4700   19.5070   39.0070 O.2    42  ASP42      -0.2867
      5  CB         9.7550   21.5330   41.5380 C.3    42  ASP42       0.1410
      6  CG        10.7380   22.6290   41.2170 C.2    42  ASP42       0.3668
      7  OD1       10.3270   23.6890   40.7020 O.co2  42  ASP42      -0.2456
      8  OD2       11.9370   22.4220   41.4800 O.co2  42  ASP42      -0.2456
      9  N         13.2620   22.9240   37.9620 N.3    44  ASP44      -0.1225
     10  CA        14.6270   23.3490   38.2200 C.3    44  ASP44       0.1805
     11  C         15.2570   22.8150   39.5040 C.2    44  ASP44       0.2597
     12  O         14.7750   23.0620   40.6140 O.2    44  ASP44      -0.2718
     13  CB        14.6760   24.8700   38.1590 C.3    44  ASP44       0.1424
     14  CG        14.1530   25.4000   36.8320 C.2    44  ASP44       0.3668
     15  OD1       14.6880   24.9670   35.7970 O.co2  44  ASP44      -0.2456
     16  OD2       13.2140   26.2270   36.8090 O.co2  44  ASP44      -0.2456
     17  N         16.3560   22.0860   39.3110 N.am   45  ASP45      -0.1974
     18  CA        17.1180   21.4290   40.3690 C.3    45  ASP45       0.1709
     19  C         16.3760   20.2530   40.9930 C.2    45  ASP45       0.2293
     20  O         16.8000   19.7030   42.0070 O.2    45  ASP45      -0.2864
     21  CB        17.5650   22.4190   41.4460 C.3    45  ASP45       0.1436
     22  CG        18.8740   23.0990   41.0880 C.2    45  ASP45       0.3671
     23  OD1       19.7730   22.3960   40.5920 O.co2  45  ASP45      -0.2456
     24  OD2       19.0120   24.3180   41.3010 O.co2  45  ASP45      -0.2456
     25  N         19.3830   22.9980   35.5210 N.3    50  SER50      -0.1202
     26  CA        19.2520   24.0460   34.5130 C.3    50  SER50       0.2020
     27  C         20.0850   25.3040   34.7330 C.2    50  SER50       0.2619
     28  O         19.9530   26.2730   33.9880 O.2    50  SER50      -0.2717
     29  CB        17.7820   24.4280   34.3960 C.3    50  SER50       0.2103
     30  OG        17.2660   24.7450   35.6740 O.3    50  SER50      -0.2182
     31  N         20.9450   25.2900   35.7450 N.am   51  SER51      -0.1951
     32  CA        21.7960   26.4390   36.0260 C.3    51  SER51       0.1924
     33  C         22.5560   26.9930   34.8130 C.2    51  SER51       0.2314
     34  O         22.7670   28.2000   34.7200 O.2    51  SER51      -0.2863
     35  CB        22.8050   26.0950   37.1330 C.3    51  SER51       0.2116
     36  OG        22.1870   26.0440   38.4080 O.3    51  SER51      -0.2180
     37  N         20.4160   29.7140   33.3750 N.3    54  PHE54      -0.1241
     38  CA        20.2190   30.8500   34.2740 C.3    54  PHE54       0.1605
     39  C         21.5410   31.6120   34.4170 C.2    54  PHE54       0.2264
     40  O         21.5640   32.8220   34.6310 O.2    54  PHE54      -0.2867
     41  CB        19.7280   30.3730   35.6520 C.3    54  PHE54       0.0534
     42  CG        18.2750   29.9890   35.6790 C.ar   54  PHE54      -0.0203
     43  CD1       17.8430   28.8050   35.0990 C.ar   54  PHE54      -0.0042
     44  CD2       17.3290   30.8530   36.2350 C.ar   54  PHE54      -0.0042
     45  CE1       16.4890   28.4810   35.0590 C.ar   54  PHE54      -0.0003
     46  CE2       15.9700   30.5400   36.2050 C.ar   54  PHE54      -0.0003
     47  CZ        15.5480   29.3500   35.6130 C.ar   54  PHE54      -0.0000
     48  N         21.9430   35.5110   33.4920 N.3    58  LYS58      -0.1245
     49  CA        22.3970   36.6000   34.3420 C.3    58  LYS58       0.1561
     50  C         23.5250   37.3650   33.6440 C.2    58  LYS58       0.2260
     51  O         23.4910   38.5940   33.5770 O.2    58  LYS58      -0.2867
     52  CB        22.8800   36.0660   35.6950 C.3    58  LYS58       0.0271
     53  CG        23.3530   37.1640   36.6270 C.3    58  LYS58       0.0035
     54  CD        23.6950   36.6480   38.0140 C.3    58  LYS58       0.0206
     55  CE        23.9780   37.8210   38.9390 C.3    58  LYS58       0.1093
     56  NZ        24.4880   37.3730   40.2530 N.3    58  LYS58      -0.1314
     57  N         19.9540   40.4140   39.9110 N.3    66  ASP66      -0.1239
     58  CA        19.0190   39.3700   39.5130 C.3    66  ASP66       0.1674
     59  C         17.8500   39.9220   38.7180 C.2    66  ASP66       0.2266
     60  O         16.8040   39.2910   38.6540 O.2    66  ASP66      -0.2867
     61  CB        18.4490   38.6250   40.7300 C.3    66  ASP66       0.1410
     62  CG        19.4830   37.7800   41.4500 C.2    66  ASP66       0.3668
     63  OD1       20.2970   37.1000   40.7880 O.co2  66  ASP66      -0.2456
     64  OD2       19.4630   37.7810   42.6980 O.co2  66  ASP66      -0.2456
     65  N         17.4540   39.9610   35.6820 N.3    68  TYR68      -0.1227
     66  CA        17.1700   39.1200   34.5230 C.3    68  TYR68       0.1736
     67  C         15.9740   38.2100   34.7530 C.2    68  TYR68       0.2595
     68  O         15.2890   37.8460   33.8060 O.2    68  TYR68      -0.2718
     69  CB        18.3850   38.2690   34.1270 C.3    68  TYR68       0.0548
     70  CG        18.6980   37.1080   35.0550 C.ar   68  TYR68      -0.0200
     71  CD1       19.2350   37.3250   36.3240 C.ar   68  TYR68      -0.0009
     72  CD2       18.4570   35.7900   34.6580 C.ar   68  TYR68      -0.0009
     73  CE1       19.5300   36.2530   37.1800 C.ar   68  TYR68       0.0417
     74  CE2       18.7400   34.7090   35.5000 C.ar   68  TYR68       0.0417
     75  CZ        19.2760   34.9460   36.7600 C.ar   68  TYR68       0.1957
     76  OH        19.5440   33.8860   37.6040 O.3    68  TYR68      -0.2866
     77  N         15.7180   37.8540   36.0120 N.am   69  LEU69      -0.1980
     78  CA        14.5990   36.9730   36.3460 C.3    69  LEU69       0.1596
     79  C         13.2370   37.6320   36.0970 C.2    69  LEU69       0.2287
     80  O         12.2060   36.9590   36.0940 O.2    69  LEU69      -0.2864
     81  CB        14.7060   36.5090   37.8080 C.3    69  LEU69       0.0297
     82  CG        15.8630   35.5540   38.1270 C.3    69  LEU69       0.0022
     83  CD1       15.9340   35.3250   39.6230 C.3    69  LEU69       0.0001
     84  CD2       15.6620   34.2360   37.3900 C.3    69  LEU69       0.0001
     85  N         13.2810   35.0230   29.6620 N.3    75  TRP75      -0.1241
     86  CA        12.3600   33.8980   29.6260 C.3    75  TRP75       0.1605
     87  C         12.1250   33.3160   28.2320 C.2    75  TRP75       0.2264
     88  O         11.9560   32.1030   28.0900 O.2    75  TRP75      -0.2867
     89  CB        11.0380   34.2880   30.2880 C.3    75  TRP75       0.0550
     90  CG        11.2220   34.4860   31.7600 C.ar   75  TRP75       0.0003
     91  CD1       11.0900   35.6530   32.4560 C.ar   75  TRP75       0.0946
     92  CD2       11.6990   33.5070   32.6980 C.ar   75  TRP75       0.0152
     93  NE1       11.4690   35.4660   33.7680 N.ar   75  TRP75      -0.2442
     94  CE2       11.8460   34.1580   33.9430 C.ar   75  TRP75       0.0810
     95  CE3       12.0220   32.1430   32.6030 C.ar   75  TRP75       0.0012
     96  CZ2       12.3040   33.4950   35.0870 C.ar   75  TRP75       0.0191
     97  CZ3       12.4780   31.4780   33.7410 C.ar   75  TRP75       0.0001
     98  CH2       12.6140   32.1610   34.9690 C.ar   75  TRP75       0.0015
     99  N          6.1870   24.6720   37.3820 N.3   110  THR110     -0.1203
    100  CA         7.3530   25.5250   37.5280 C.3   110  THR110      0.1994
    101  C          7.0200   26.9720   37.8800 C.2   110  THR110      0.2618
    102  O          5.9230   27.4560   37.6120 O.2   110  THR110     -0.2717
    103  CB         8.1950   25.5070   36.2300 C.3   110  THR110      0.1784
    104  OG1        9.3140   26.3850   36.3790 O.3   110  THR110     -0.2211
    105  CG2        7.3550   25.9650   35.0380 C.3   110  THR110      0.0376
    106  N          7.9840   27.6540   38.4860 N.am  111  GLY111     -0.1942
    107  CA         7.7970   29.0470   38.8440 C.3   111  GLY111      0.2014
    108  C          8.3100   29.9530   37.7390 C.2   111  GLY111      0.2638
    109  O          8.2370   31.1770   37.8560 O.2   111  GLY111     -0.2714
    110  N          8.8540   29.3600   36.6740 N.am  112  ARG112     -0.1977
    111  CA         9.3620   30.1370   35.5380 C.3   112  ARG112      0.1597
    112  C          8.2000   30.9320   34.9560 C.2   112  ARG112      0.2287
    113  O          7.0570   30.4800   35.0030 O.2   112  ARG112     -0.2864
    114  CB         9.8860   29.2180   34.4330 C.3   112  ARG112      0.0334
    115  CG        11.1010   28.3580   34.7590 C.3   112  ARG112      0.0492
    116  CD        11.5510   27.6720   33.4820 C.3   112  ARG112      0.2205
    117  NE        12.7040   26.8020   33.6670 N.pl3 112  ARG112     -0.0865
    118  CZ        13.3300   26.1760   32.6790 C.cat 112  ARG112      0.5346
    119  NH1       12.9200   26.3330   31.4250 N.pl3 112  ARG112      0.1354
    120  NH2       14.3520   25.3730   32.9470 N.pl3 112  ARG112      0.1354
    121  N          5.6950   33.5150   39.4420 N.3   143  ASP143     -0.1239
    122  CA         6.2470   33.7820   40.7670 C.3   143  ASP143      0.1674
    123  C          5.8020   35.1490   41.3050 C.2   143  ASP143      0.2266
    124  O          6.4470   36.1580   41.0290 O.2   143  ASP143     -0.2867
    125  CB         7.7800   33.7400   40.6920 C.3   143  ASP143      0.1410
    126  CG         8.4430   33.7000   42.0680 C.2   143  ASP143      0.3668
    127  OD1        8.4140   32.6280   42.7190 O.co2 143  ASP143     -0.2456
    128  OD2        8.9890   34.7460   42.4970 O.co2 143  ASP143     -0.2456
    129  N          2.1730   27.8180   43.3160 N.3   150  LYS150     -0.1245
    130  CA         1.9930   26.3870   43.0540 C.3   150  LYS150      0.1561
    131  C          0.7850   25.7200   43.7210 C.2   150  LYS150      0.2260
    132  O          0.2150   24.7740   43.1730 O.2   150  LYS150     -0.2867
    133  CB         3.2770   25.6310   43.4290 C.3   150  LYS150      0.0271
    134  CG         4.5190   26.2120   42.7550 C.3   150  LYS150      0.0035
    135  CD         5.7490   25.3300   42.8800 C.3   150  LYS150      0.0206
    136  CE         6.8860   25.9070   42.0410 C.3   150  LYS150      0.1093
    137  NZ         8.0970   25.0340   42.0100 N.3   150  LYS150     -0.1314
    138  N          9.5370   26.3250   49.2680 N.3   168  ASN168     -0.1240
    139  CA         8.1930   26.6320   48.7790 C.3   168  ASN168      0.1653
    140  C          7.5350   25.4500   48.0710 C.2   168  ASN168      0.2266
    141  O          6.3170   25.4090   47.9410 O.2   168  ASN168     -0.2867
    142  CB         8.2050   27.8900   47.8940 C.3   168  ASN168      0.1155
    143  CG         8.7980   27.6480   46.5180 C.2   168  ASN168      0.2627
    144  OD1        9.7870   26.9280   46.3630 O.2   168  ASN168     -0.2716
    145  ND2        8.1980   28.2670   45.5080 N.am  168  ASN168     -0.0877
    146  N         23.7000   27.3270   40.5600 N.3   190  THR190     -0.1203
    147  CA        23.9590   28.7400   40.8020 C.3   190  THR190      0.1994
    148  C         22.8870   29.3620   41.6870 C.2   190  THR190      0.2618
    149  O         22.9750   30.5360   42.0550 O.2   190  THR190     -0.2717
    150  CB        24.0630   29.5550   39.4880 C.3   190  THR190      0.1784
    151  OG1       22.8300   29.4720   38.7570 O.3   190  THR190     -0.2211
    152  CG2       25.2100   29.0220   38.6340 C.3   190  THR190      0.0376
    153  N         21.8740   28.5720   42.0260 N.am  191  TYR191     -0.1961
    154  CA        20.8030   29.0480   42.8900 C.3   191  TYR191      0.1771
    155  C         21.1970   28.8200   44.3600 C.2   191  TYR191      0.2619
    156  O         20.9520   27.7620   44.9320 O.2   191  TYR191     -0.2715
    157  CB        19.5120   28.3100   42.5510 C.3   191  TYR191      0.0574
    158  CG        18.2770   28.9050   43.1720 C.ar  191  TYR191     -0.0198
    159  CD1       18.2410   30.2360   43.5800 C.ar  191  TYR191     -0.0009
    160  CD2       17.1230   28.1430   43.3130 C.ar  191  TYR191     -0.0009
    161  CE1       17.0790   30.7900   44.1130 C.ar  191  TYR191      0.0417
    162  CE2       15.9620   28.6840   43.8380 C.ar  191  TYR191      0.0417
    163  CZ        15.9420   30.0020   44.2340 C.ar  191  TYR191      0.1957
    164  OH        14.7740   30.5250   44.7360 O.3   191  TYR191     -0.2866
    165  N         21.8280   29.8290   44.9510 N.am  192  LYS192     -0.1977
    166  CA        22.2910   29.7640   46.3290 C.3   192  LYS192      0.1596
    167  C         21.5510   30.7770   47.2030 C.2   192  LYS192      0.2287
    168  O         20.9920   31.7490   46.7030 O.2   192  LYS192     -0.2864
    169  CB        23.8020   30.0470   46.3790 C.3   192  LYS192      0.0298
    170  CG        24.6580   29.0210   45.6410 C.3   192  LYS192      0.0038
    171  CD        24.5860   27.6590   46.3240 C.3   192  LYS192      0.0206
    172  CE        25.3390   26.5760   45.5560 C.3   192  LYS192      0.1093
    173  NZ        26.7860   26.8550   45.3590 N.3   192  LYS192     -0.1314
@<TRIPOS>BOND
     1    88    87    2
     2    87    86    1
     3    86    85    1
     4    86    89    1
     5    89    90    1
     6   119   118    1
     7    90    91   ar
     8    90    92   ar
     9    91    93   ar
    10    95    92   ar
    11    95    97   ar
    12   118   120    1
    13   118   117    2
    14    92    94   ar
    15    37    38    1
    16   116   117    1
    17   116   115    1
    18    48    49    1
    19    51    50    2
    20    50    49    1
    21    97    98   ar
    22    93    94   ar
    23    68    67    2
    24    94    96   ar
    25    28    27    2
    26    69    66    1
    27    69    70    1
    28    38    39    1
    29    38    41    1
    30    49    52    1
    31    29    26    1
    32    29    30    1
    33    39    40    2
    34   114   115    1
    35   114   111    1
    36    26    27    1
    37    26    25    1
    38    66    67    1
    39    66    65    1
    40    72    70   ar
    41    72    74   ar
    42    34    33    2
    43    27    31   am
    44    67    77   am
    45    33    32    1
    46   112   113    2
    47   112   111    1
    48    98    96   ar
    49   105   103    1
    50    70    71   ar
    51    45    43   ar
    52    45    47   ar
    53    43    42   ar
    54    74    75   ar
    55   111   110    1
    56    47    46   ar
    57    41    42    1
    58    42    44   ar
    59    52    53    1
    60    31    32    1
    61    15    14   ar
    62    77    78    1
    63    32    35    1
    64    80    79    2
    65    79    78    1
    66    46    44   ar
    67   103   104    1
    68   103   100    1
    69    71    73   ar
    70    78    81    1
    71    53    54    1
    72   110   108   am
    73    75    73   ar
    74    75    76    1
    75    16    14   ar
    76    14    13    1
    77    35    36    1
    78    99   100    1
    79    84    82    1
    80   100   101    1
    81   102   101    2
    82   108   109    2
    83   108   107    1
    84    81    82    1
    85   101   106   am
    86     9    10    1
    87    54    55    1
    88    82    83    1
    89    13    10    1
    90    10    11    1
    91   106   107    1
    92   152   150    1
    93    60    59    2
    94    59    58    1
    95   151   150    1
    96    55    56    1
    97     4     3    2
    98     3     2    1
    99    17    11   am
   100    17    18    1
   101   121   122    1
   102   150   147    1
   103    11    12    2
   104    58    57    1
   105    58    61    1
   106     2     1    1
   107     2     5    1
   108    18    19    1
   109    18    21    1
   110   146   147    1
   111    23    22   ar
   112   125   122    1
   113   125   126    1
   114     7     6   ar
   115    61    62    1
   116   122   123    1
   117    63    62   ar
   118   147   148    1
   119    19    20    2
   120   124   123    2
   121    22    24   ar
   122    22    21    1
   123     6     8   ar
   124     6     5    1
   125    62    64   ar
   126   148   153   am
   127   148   149    2
   128   137   136    1
   129   153   154    1
   130   136   135    1
   131   126   128   ar
   132   126   127   ar
   133   157   154    1
   134   157   158    1
   135   134   135    1
   136   134   133    1
   137   154   155    1
   138   130   129    1
   139   130   133    1
   140   130   131    1
   141   158   160   ar
   142   158   159   ar
   143   132   131    2
   144   160   162   ar
   145   159   161   ar
   146   162   163   ar
   147   161   163   ar
   148   163   164    1
   149   155   156    2
   150   155   165   am
   151   165   166    1
   152   173   172    1
   153   145   143   am
   154   172   171    1
   155   170   171    1
   156   170   169    1
   157   166   169    1
   158   166   167    1
   159   144   143    2
   160   143   142    1
   161   168   167    2
   162   142   139    1
   163   141   140    2
   164   140   139    1
   165   139   138    1
