@<TRIPOS>MOLECULE
tmp/1z5wA00.pdb
 191 178 0 0 0
SMALL
GASTEIGER

@<TRIPOS>ATOM
      1  N          8.7750   -8.4130   19.3890 N.3    10  GLY10      -0.1210
      2  CA         9.4300   -9.6120   18.8900 C.3    10  GLY10       0.1956
      3  C         10.3290  -10.2970   19.8950 C.2    10  GLY10       0.2612
      4  O         10.5660   -9.7650   20.9830 O.2    10  GLY10      -0.2717
      5  N         10.8280  -11.4810   19.5480 N.am   11  GLN11      -0.1965
      6  CA        11.7220  -12.1910   20.4570 C.3    11  GLN11       0.1733
      7  C         12.8140  -11.1950   20.8340 C.2    11  GLN11       0.2616
      8  O         12.8490  -10.6750   21.9500 O.2    11  GLN11      -0.2715
      9  CB        12.3300  -13.4270   19.7660 C.3    11  GLN11       0.0408
     10  CG        13.2350  -14.3180   20.6320 C.3    11  GLN11       0.0908
     11  CD        13.9100  -15.4120   19.8080 C.2    11  GLN11       0.2608
     12  OE1       13.5550  -15.6220   18.6590 O.2    11  GLN11      -0.2717
     13  NE2       14.9060  -16.0790   20.3890 N.am   11  GLN11      -0.0878
     14  N         13.6820  -10.9130   19.8740 N.am   12  CYS12      -0.1968
     15  CA        14.7720   -9.9810   20.0740 C.3    12  CYS12       0.1712
     16  C         14.3360   -8.7820   20.9010 C.2    12  CYS12       0.2296
     17  O         14.9390   -8.4700   21.9240 O.2    12  CYS12      -0.2864
     18  CB        15.2930   -9.4960   18.7270 C.3    12  CYS12       0.0983
     19  SG        16.5860   -8.2440   18.8610 S.3    12  CYS12      -0.0798
     20  N         13.6030   -9.8070   24.4760 N.3    15  GLN15      -0.1231
     21  CA        14.6410  -10.4720   25.2330 C.3    15  GLN15       0.1698
     22  C         15.7110   -9.4980   25.7290 C.2    15  GLN15       0.2592
     23  O         16.2040   -9.6330   26.8480 O.2    15  GLN15      -0.2718
     24  CB        15.2260  -11.5910   24.3990 C.3    15  GLN15       0.0381
     25  CG        14.2670  -12.7390   24.3580 C.3    15  GLN15       0.0905
     26  CD        14.8790  -13.9440   23.7580 C.2    15  GLN15       0.2608
     27  OE1       14.3730  -15.0590   23.9120 O.2    15  GLN15      -0.2717
     28  NE2       15.9850  -13.7430   23.0570 N.am   15  GLN15      -0.0878
     29  N         16.0650   -8.5110   24.9180 N.am   16  ILE16      -0.1980
     30  CA        17.0290   -7.5460   25.3770 C.3    16  ILE16       0.1595
     31  C         16.2510   -6.7340   26.4030 C.2    16  ILE16       0.2287
     32  O         16.8370   -6.1300   27.3020 O.2    16  ILE16      -0.2864
     33  CB        17.5070   -6.6040   24.2440 C.3    16  ILE16       0.0276
     34  CG1       16.3900   -5.6370   23.8590 C.3    16  ILE16       0.0022
     35  CG2       17.9130   -7.4120   23.0200 C.3    16  ILE16       0.0022
     36  CD1       16.8530   -4.4910   22.9720 C.3    16  ILE16       0.0001
     37  N          4.2350   -8.9170   21.1110 N.3    59  ASP59      -0.1225
     38  CA         4.8210  -10.0030   20.3360 C.3    59  ASP59       0.1805
     39  C          3.6960  -10.6460   19.5330 C.2    59  ASP59       0.2598
     40  O          2.5250  -10.5060   19.8880 O.2    59  ASP59      -0.2718
     41  CB         5.4590  -11.0040   21.3100 C.3    59  ASP59       0.1424
     42  CG         6.4390  -11.9510   20.6440 C.2    59  ASP59       0.3668
     43  OD1        6.9460  -11.6230   19.5430 O.co2  59  ASP59      -0.2456
     44  OD2        6.7180  -13.0220   21.2480 O.co2  59  ASP59      -0.2456
     45  N          4.0480  -11.3370   18.4520 N.am   60  LEU60      -0.1966
     46  CA         3.0490  -11.9720   17.6030 C.3    60  LEU60       0.1728
     47  C          2.9890  -13.4620   17.8090 C.2    60  LEU60       0.2616
     48  O          2.3750  -14.1740   17.0240 O.2    60  LEU60      -0.2715
     49  CB         3.3320  -11.6860   16.1290 C.3    60  LEU60       0.0311
     50  CG         3.2860  -10.2070   15.7580 C.3    60  LEU60       0.0022
     51  CD1        3.3230  -10.0300   14.2470 C.3    60  LEU60       0.0001
     52  CD2        2.0230   -9.6010   16.3330 C.3    60  LEU60       0.0001
     53  N          3.6330  -13.9340   18.8660 N.am   61  GLU61      -0.1977
     54  CA         3.6450  -15.3520   19.1800 C.3    61  GLU61       0.1602
     55  C          3.8720  -15.4610   20.6820 C.2    61  GLU61       0.2287
     56  O          4.6720  -14.7280   21.2540 O.2    61  GLU61      -0.2864
     57  CB         4.7600  -16.0370   18.4110 C.3    61  GLU61       0.0415
     58  CG         4.8230  -17.5230   18.6260 C.3    61  GLU61       0.1163
     59  CD         6.2520  -18.0230   18.6230 C.2    61  GLU61       0.3649
     60  OE1        7.0990  -17.3760   17.9520 O.co2  61  GLU61      -0.2457
     61  OE2        6.5230  -19.0570   19.2810 O.co2  61  GLU61      -0.2457
     62  N          4.9440  -12.4490   11.8100 N.3    86  GLY86      -0.1210
     63  CA         4.5140  -13.4620   10.8650 C.3    86  GLY86       0.1956
     64  C          5.6730  -14.1160   10.1380 C.2    86  GLY86       0.2611
     65  O          5.5190  -15.1910    9.5480 O.2    86  GLY86      -0.2717
     66  N          6.8230  -13.4450   10.1950 N.am   87  ASN87      -0.1974
     67  CA         8.0930  -13.8560    9.5870 C.3    87  ASN87       0.1688
     68  C          8.4750  -12.8150    8.5550 C.2    87  ASN87       0.2292
     69  O          9.6560  -12.5590    8.3140 O.2    87  ASN87      -0.2864
     70  CB         8.0150  -15.2370    8.9110 C.3    87  ASN87       0.1181
     71  CG         7.5560  -15.1670    7.4500 C.2    87  ASN87       0.2629
     72  OD1        6.3820  -14.8870    7.1530 O.2    87  ASN87      -0.2716
     73  ND2        8.4880  -15.4270    6.5310 N.am   87  ASN87      -0.0877
     74  N         14.3310   -5.6580   16.7230 N.3   125  SER125     -0.1217
     75  CA        15.3450   -6.0500   15.7530 C.3   125  SER125      0.1889
     76  C         14.9290   -5.5540   14.3700 C.2   125  SER125      0.2288
     77  O         13.7470   -5.3710   14.1130 O.2   125  SER125     -0.2866
     78  CB        15.4790   -7.5670   15.7470 C.3   125  SER125      0.2089
     79  OG        14.2140   -8.1690   15.9910 O.3   125  SER125     -0.2183
     80  N         15.9720   -7.1130   11.2570 N.3   127  ALA127     -0.1231
     81  CA        15.6680   -8.2910   10.4380 C.3   127  ALA127      0.1694
     82  C         14.4160   -8.8510   11.0770 C.2   127  ALA127      0.2593
     83  O         13.6200   -8.0910   11.6130 O.2   127  ALA127     -0.2718
     84  CB        16.7850   -9.2970   10.5160 C.3   127  ALA127      0.0304
     85  N         14.2230  -10.1600   11.0500 N.am  128  GLY128     -0.1942
     86  CA        13.0190  -10.7030   11.6670 C.3   128  GLY128      0.2014
     87  C         11.7140  -10.1210   11.1190 C.2   128  GLY128      0.2639
     88  O         11.7330   -9.2670   10.2200 O.2   128  GLY128     -0.2714
     89  N         10.5770  -10.5670   11.6540 N.am  129  GLY129     -0.1939
     90  CA         9.3020  -10.0680   11.1660 C.3   129  GLY129      0.2014
     91  C          8.6040   -9.0450   12.0450 C.2   129  GLY129      0.2640
     92  O          8.4740   -7.8760   11.6740 O.2   129  GLY129     -0.2714
     93  N          8.1400   -9.4940   13.2060 N.am  130  THR130     -0.1936
     94  CA         7.4440   -8.6390   14.1620 C.3   130  THR130      0.2028
     95  C          8.2000   -7.3380   14.4680 C.2   130  THR130      0.2642
     96  O          7.7050   -6.2360   14.2130 O.2   130  THR130     -0.2714
     97  CB         7.1970   -9.4130   15.4620 C.3   130  THR130      0.1808
     98  OG1        6.4230  -10.5820   15.1640 O.3   130  THR130     -0.2208
     99  CG2        6.4520   -8.5570   16.4710 C.3   130  THR130      0.0379
    100  N          9.4000   -7.4710   15.0210 N.am  131  GLY131     -0.1954
    101  CA        10.1890   -6.2960   15.3260 C.3   131  GLY131      0.1869
    102  C         10.1410   -5.2850   14.2000 C.2   131  GLY131      0.2309
    103  O          9.7300   -4.1570   14.4120 O.2   131  GLY131     -0.2863
    104  N         18.4410   -3.7410   16.9160 N.3   156  VAL156     -0.1245
    105  CA        19.4220   -4.8060   16.7920 C.3   156  VAL156      0.1561
    106  C         19.5640   -5.2430   15.3440 C.2   156  VAL156      0.2260
    107  O         18.6330   -5.8070   14.7570 O.2   156  VAL156     -0.2867
    108  CB        19.0350   -6.0350   17.6730 C.3   156  VAL156      0.0252
    109  CG1       19.9910   -7.2050   17.4200 C.3   156  VAL156      0.0019
    110  CG2       19.0820   -5.6490   19.1490 C.3   156  VAL156      0.0019
    111  N         21.0900   -7.5900   12.4090 N.3   158  PRO158     -0.2102
    112  CA        21.4950   -9.0020   12.2940 C.3   158  PRO158      0.1504
    113  C         22.9940   -9.2500   12.2330 C.2   158  PRO158      0.2575
    114  O         23.7830   -8.3610   11.9080 O.2   158  PRO158     -0.2718
    115  CB        20.7730   -9.4730   11.0330 C.3   158  PRO158      0.0282
    116  CG        20.7190   -8.2170   10.1980 C.3   158  PRO158      0.0208
    117  CD        20.3260   -7.1670   11.2200 C.3   158  PRO158      0.0893
    118  N         23.3760  -10.4750   12.5590 N.am  159  ASN159     -0.1975
    119  CA        24.7760  -10.8530   12.5630 C.3   159  ASN159      0.1688
    120  C         25.3480  -11.0140   11.1540 C.2   159  ASN159      0.2292
    121  O         25.0130  -11.9510   10.4340 O.2   159  ASN159     -0.2864
    122  CB        24.9520  -12.1470   13.3690 C.3   159  ASN159      0.1181
    123  CG        26.3300  -12.7700   13.1900 C.2   159  ASN159      0.2629
    124  OD1       27.3620  -12.1450   13.4790 O.2   159  ASN159     -0.2716
    125  ND2       26.3530  -14.0140   12.7110 N.am  159  ASN159     -0.0877
    126  N         17.5620  -16.3920    7.4170 N.3   163  VAL163     -0.1245
    127  CA        16.2910  -15.6860    7.4560 C.3   163  VAL163      0.1561
    128  C         15.9130  -15.4680    5.9940 C.2   163  VAL163      0.2260
    129  O         14.7340  -15.4420    5.6430 O.2   163  VAL163     -0.2867
    130  CB        16.4250  -14.3220    8.1830 C.3   163  VAL163      0.0252
    131  CG1       15.1490  -13.5100    8.0320 C.3   163  VAL163      0.0019
    132  CG2       16.7280  -14.5500    9.6590 C.3   163  VAL163      0.0019
    133  N         16.3440  -10.9530    5.5420 N.3   166  GLN166     -0.1245
    134  CA        16.7660   -9.9210    6.4770 C.3   166  GLN166      0.1566
    135  C         16.9940   -8.6370    5.6900 C.2   166  GLN166      0.2260
    136  O         16.5600   -7.5660    6.0970 O.2   166  GLN166     -0.2867
    137  CB        18.0580  -10.3130    7.1870 C.3   166  GLN166      0.0367
    138  CG        17.9810  -11.6350    7.9100 C.3   166  GLN166      0.0905
    139  CD        19.1510  -11.8500    8.8540 C.2   166  GLN166      0.2608
    140  OE1       20.2990  -11.5270    8.5240 O.2   166  GLN166     -0.2717
    141  NE2       18.8700  -12.4050   10.0330 N.am  166  GLN166     -0.0878
    142  N         24.7970   -6.9810   15.7510 N.3   189  ASN189     -0.1240
    143  CA        24.9520   -8.3420   16.2560 C.3   189  ASN189      0.1653
    144  C         26.3210   -8.9160   15.9510 C.2   189  ASN189      0.2266
    145  O         26.8760   -9.6680   16.7380 O.2   189  ASN189     -0.2867
    146  CB        23.8700   -9.2540   15.6840 C.3   189  ASN189      0.1155
    147  CG        22.6670   -9.3650   16.6000 C.2   189  ASN189      0.2627
    148  OD1       22.6320   -8.7500   17.6650 O.2   189  ASN189     -0.2716
    149  ND2       21.6760  -10.1590   16.1940 N.am  189  ASN189     -0.0877
    150  N         28.6250   -7.4060   18.4710 N.3   192  LEU192     -0.1245
    151  CA        28.3550   -7.9560   19.7970 C.3   192  LEU192      0.1561
    152  C         29.0540   -9.3030   19.9230 C.2   192  LEU192      0.2260
    153  O         29.6980   -9.5900   20.9350 O.2   192  LEU192     -0.2867
    154  CB        26.8530   -8.1220   20.0000 C.3   192  LEU192      0.0270
    155  CG        26.1270   -6.8030   20.1740 C.3   192  LEU192      0.0019
    156  CD1       24.6390   -6.9790   19.9890 C.3   192  LEU192      0.0001
    157  CD2       26.4690   -6.2660   21.5540 C.3   192  LEU192      0.0001
    158  N         22.2790  -15.8460   22.8860 N.3   207  PHE207     -0.1241
    159  CA        21.6090  -14.5450   22.9720 C.3   207  PHE207      0.1605
    160  C         21.5700  -14.0130   24.3920 C.2   207  PHE207      0.2264
    161  O         21.6540  -12.8030   24.6030 O.2   207  PHE207     -0.2867
    162  CB        20.1800  -14.6190   22.4150 C.3   207  PHE207      0.0534
    163  CG        20.1060  -14.4920   20.9130 C.ar  207  PHE207     -0.0203
    164  CD1       19.0420  -15.0320   20.2070 C.ar  207  PHE207     -0.0042
    165  CD2       21.0990  -13.8210   20.2020 C.ar  207  PHE207     -0.0042
    166  CE1       18.9750  -14.9060   18.8210 C.ar  207  PHE207     -0.0003
    167  CE2       21.0330  -13.6880   18.8120 C.ar  207  PHE207     -0.0003
    168  CZ        19.9750  -14.2300   18.1240 C.ar  207  PHE207     -0.0000
    169  N         24.9170  -12.6790   24.8960 N.3   210  ILE210     -0.1231
    170  CA        25.0250  -11.4850   24.0630 C.3   210  ILE210      0.1692
    171  C         24.1940  -10.3140   24.6140 C.2   210  ILE210      0.2592
    172  O         24.6930   -9.1920   24.7550 O.2   210  ILE210     -0.2718
    173  CB        24.6390  -11.8450   22.5840 C.3   210  ILE210      0.0266
    174  CG1       25.8900  -12.3550   21.8460 C.3   210  ILE210      0.0019
    175  CG2       24.0120  -10.6660   21.8640 C.3   210  ILE210      0.0020
    176  CD1       25.6140  -12.9450   20.4510 C.3   210  ILE210      0.0001
    177  N         22.9350  -10.5790   24.9450 N.am  211  ASN211     -0.1974
    178  CA        22.0630   -9.5460   25.4960 C.3   211  ASN211      0.1688
    179  C         22.5440   -8.9980   26.8350 C.2   211  ASN211      0.2292
    180  O         22.1020   -7.9330   27.2640 O.2   211  ASN211     -0.2864
    181  CB        20.6470  -10.0850   25.6640 C.3   211  ASN211      0.1181
    182  CG        19.9650  -10.2950   24.3510 C.2   211  ASN211      0.2629
    183  OD1       20.5620  -10.0620   23.3020 O.2   211  ASN211     -0.2716
    184  ND2       18.7070  -10.7330   24.3890 N.am  211  ASN211     -0.0877
    185  N         24.1900   -5.7950   25.7940 N.3   214  VAL214     -0.1245
    186  CA        23.2140   -4.7840   25.3990 C.3   214  VAL214      0.1561
    187  C         22.5660   -4.1500   26.6210 C.2   214  VAL214      0.2260
    188  O         22.3120   -2.9550   26.6420 O.2   214  VAL214     -0.2867
    189  CB        22.0890   -5.3960   24.5200 C.3   214  VAL214      0.0252
    190  CG1       21.1010   -4.3330   24.1480 C.3   214  VAL214      0.0019
    191  CG2       22.6670   -6.0300   23.2770 C.3   214  VAL214      0.0019
@<TRIPOS>BOND
     1   133   134    1
     2   129   128    2
     3   135   136    2
     4   135   134    1
     5   128   127    1
     6   134   137    1
     7    73    71   am
     8    72    71    2
     9   137   138    1
    10   126   127    1
    11    71    70    1
    12   127   130    1
    13   138   139    1
    14   131   130    1
    15   130   132    1
    16    69    68    2
    17   140   139    2
    18    68    67    1
    19   139   141   am
    20    70    67    1
    21    65    64    2
    22    67    66    1
    23    64    66   am
    24    64    63    1
    25   116   115    1
    26   116   117    1
    27    88    87    2
    28   121   120    2
    29    81    84    1
    30    81    82    1
    31    81    80    1
    32    63    62    1
    33   115   112    1
    34    85    82   am
    35    85    86    1
    36    82    83    2
    37    87    89   am
    38    87    86    1
    39   120   119    1
    40    90    89    1
    41    90    91    1
    42   117   111    1
    43    92    91    2
    44   114   113    2
    45    91    93   am
    46   113   112    1
    47   113   118   am
    48   112   111    1
    49   118   119    1
    50   119   122    1
    51   125   123   am
    52   123   122    1
    53   123   124    2
    54    93    94    1
    55    77    76    2
    56    94    95    1
    57    94    97    1
    58   102   103    2
    59   102   101    1
    60    96    95    2
    61    51    50    1
    62    76    75    1
    63    95   100   am
    64   107   106    2
    65   100   101    1
    66    98    97    1
    67   106   105    1
    68    97    99    1
    69   146   143    1
    70   146   147    1
    71    78    75    1
    72    78    79    1
    73   142   143    1
    74    75    74    1
    75    50    49    1
    76    50    52    1
    77   144   143    1
    78   144   145    2
    79    49    46    1
    80   149   147   am
    81   147   148    2
    82   105   104    1
    83   105   108    1
    84    48    47    2
    85   109   108    1
    86    46    47    1
    87    46    45    1
    88   108   110    1
    89    47    53   am
    90    60    59   ar
    91   168   167   ar
    92   168   166   ar
    93    57    58    1
    94    57    54    1
    95    45    39   am
    96   150   151    1
    97    59    58    1
    98    59    61   ar
    99    12    11    2
   100    18    19    1
   101    18    15    1
   102   167   165   ar
   103   166   164   ar
   104    53    54    1
   105     2     1    1
   106     2     3    1
   107    54    55    1
   108    39    40    2
   109    39    38    1
   110    43    42   ar
   111     5     3   am
   112     5     6    1
   113     9     6    1
   114     9    10    1
   115   151   152    1
   116   151   154    1
   117    11    13   am
   118    11    10    1
   119    14    15    1
   120    14     7   am
   121     3     4    2
   122   152   153    2
   123   156   155    1
   124   154   155    1
   125    15    16    1
   126   155   157    1
   127   165   163   ar
   128   164   163   ar
   129    38    37    1
   130    38    41    1
   131   176   174    1
   132     6     7    1
   133    42    44   ar
   134    42    41    1
   135    55    56    2
   136     7     8    2
   137    16    17    2
   138   163   162    1
   139   174   173    1
   140   175   173    1
   141   162   159    1
   142   173   170    1
   143   158   159    1
   144    36    34    1
   145   159   160    1
   146    35    33    1
   147    28    26   am
   148   191   189    1
   149   183   182    2
   150    26    27    2
   151    26    25    1
   152    34    33    1
   153   170   171    1
   154   170   169    1
   155   190   189    1
   156    33    30    1
   157   182   184   am
   158   182   181    1
   159    25    24    1
   160   160   161    2
   161    24    21    1
   162    20    21    1
   163   189   186    1
   164   171   172    2
   165   171   177   am
   166    29    30    1
   167    29    22   am
   168   177   178    1
   169    21    22    1
   170    30    31    1
   171   186   185    1
   172   186   187    1
   173   178   181    1
   174   178   179    1
   175    22    23    2
   176    31    32    2
   177   187   188    2
   178   179   180    2
