@<TRIPOS>MOLECULE
tmp/1z62A03.pdb
 117 114 0 0 0
SMALL
GASTEIGER

@<TRIPOS>ATOM
      1  N         33.8390   30.8000   36.6380 N.3   263  ASN263     -0.1225
      2  CA        34.5430   30.9250   35.3760 C.3   263  ASN263      0.1785
      3  C         34.2950   29.7420   34.4590 C.2   263  ASN263      0.2597
      4  O         34.3500   28.5870   34.8820 O.2   263  ASN263     -0.2718
      5  CB        36.0420   31.0750   35.6310 C.3   263  ASN263      0.1169
      6  CG        36.3470   32.2370   36.5390 C.2   263  ASN263      0.2627
      7  OD1       35.8640   33.3470   36.3170 O.2   263  ASN263     -0.2716
      8  ND2       37.1410   31.9920   37.5720 N.am  263  ASN263     -0.0877
      9  N         34.0150   30.0520   33.2010 N.am  264  ASP264     -0.1974
     10  CA        33.7710   29.0440   32.1800 C.3   264  ASP264      0.1709
     11  C         34.9240   29.1490   31.1920 C.2   264  ASP264      0.2293
     12  O         35.1090   30.1860   30.5610 O.2   264  ASP264     -0.2864
     13  CB        32.4530   29.3340   31.4560 C.3   264  ASP264      0.1436
     14  CG        32.1030   28.2690   30.4270 C.2   264  ASP264      0.3671
     15  OD1       31.5550   27.2150   30.8170 O.co2 264  ASP264     -0.2456
     16  OD2       32.3830   28.4830   29.2270 O.co2 264  ASP264     -0.2456
     17  N         38.1510   29.4730   31.6340 N.3   266  PHE266     -0.1241
     18  CA        39.1130   30.5190   31.9640 C.3   266  PHE266      0.1605
     19  C         39.8100   30.1640   33.2600 C.2   266  PHE266      0.2264
     20  O         39.1640   29.7950   34.2400 O.2   266  PHE266     -0.2867
     21  CB        38.4490   31.8790   32.1340 C.3   266  PHE266      0.0534
     22  CG        39.4330   32.9940   32.3270 C.ar  266  PHE266     -0.0203
     23  CD1       40.1360   33.5040   31.2400 C.ar  266  PHE266     -0.0042
     24  CD2       39.6790   33.5180   33.5910 C.ar  266  PHE266     -0.0042
     25  CE1       41.0700   34.5250   31.4070 C.ar  266  PHE266     -0.0003
     26  CE2       40.6140   34.5450   33.7700 C.ar  266  PHE266     -0.0003
     27  CZ        41.3070   35.0470   32.6750 C.ar  266  PHE266     -0.0000
     28  N         41.8020   31.1060   36.5800 N.3   268  GLU268     -0.1245
     29  CA        42.0530   32.1780   37.5350 C.3   268  GLU268      0.1567
     30  C         42.8910   31.5270   38.6330 C.2   268  GLU268      0.2260
     31  O         42.3840   30.7130   39.4090 O.2   268  GLU268     -0.2867
     32  CB        40.7380   32.7190   38.1070 C.3   268  GLU268      0.0388
     33  CG        40.9110   33.9980   38.9150 C.3   268  GLU268      0.1160
     34  CD        39.5960   34.5770   39.4130 C.2   268  GLU268      0.3649
     35  OE1       39.6330   35.6130   40.1100 O.co2 268  GLU268     -0.2457
     36  OE2       38.5290   34.0000   39.1120 O.co2 268  GLU268     -0.2457
     37  N         43.8650   30.5400   27.5100 N.3   354  GLU354     -0.1245
     38  CA        43.4530   31.1710   28.7590 C.3   354  GLU354      0.1567
     39  C         42.7420   30.2070   29.7180 C.2   354  GLU354      0.2260
     40  O         42.5610   30.5210   30.8940 O.2   354  GLU354     -0.2867
     41  CB        42.5500   32.3830   28.4940 C.3   354  GLU354      0.0388
     42  CG        41.3110   32.0710   27.6800 C.3   354  GLU354      0.1160
     43  CD        41.4910   32.3610   26.2050 C.2   354  GLU354      0.3649
     44  OE1       42.5790   32.0670   25.6600 O.co2 354  GLU354     -0.2457
     45  OE2       40.5320   32.8770   25.5890 O.co2 354  GLU354     -0.2457
     46  N         30.6780   34.2070   25.7870 N.3   543  HIS543     -0.1226
     47  CA        32.1040   34.1190   25.4810 C.3   543  HIS543      0.1752
     48  C         32.3700   34.7320   24.1190 C.2   543  HIS543      0.2595
     49  O         31.5130   34.6980   23.2400 O.2   543  HIS543     -0.2718
     50  CB        32.5310   32.6580   25.4110 C.3   543  HIS543      0.0759
     51  CG        33.2480   32.1660   26.6230 C.ar  543  HIS543      0.0818
     52  ND1       34.5530   32.5060   26.9030 N.ar  543  HIS543     -0.2268
     53  CD2       32.8610   31.3140   27.6030 C.ar  543  HIS543      0.1154
     54  CE1       34.9420   31.8820   28.0000 C.ar  543  HIS543      0.1986
     55  NE2       33.9340   31.1520   28.4450 N.ar  543  HIS543     -0.2212
     56  N         33.5570   35.2900   23.9260 N.am  544  GLU544     -0.1979
     57  CA        33.8660   35.8460   22.6200 C.3   544  GLU544      0.1602
     58  C         34.0050   34.7100   21.6040 C.2   544  GLU544      0.2287
     59  O         33.6140   34.8590   20.4490 O.2   544  GLU544     -0.2864
     60  CB        35.1570   36.6620   22.6720 C.3   544  GLU544      0.0415
     61  CG        35.0470   37.9080   23.5200 C.3   544  GLU544      0.1163
     62  CD        36.3920   38.5580   23.7620 C.2   544  GLU544      0.3649
     63  OE1       36.8440   39.3420   22.8960 O.co2 544  GLU544     -0.2457
     64  OE2       36.9980   38.2670   24.8140 O.co2 544  GLU544     -0.2457
     65  N         31.0540   35.5330   33.2180 N.3   582  ALA582     -0.1245
     66  CA        31.8230   35.4450   34.4480 C.3   582  ALA582      0.1562
     67  C         31.9120   36.8910   34.9510 C.2   582  ALA582      0.2260
     68  O         32.0990   37.8140   34.1620 O.2   582  ALA582     -0.2867
     69  CB        33.2130   34.8790   34.1650 C.3   582  ALA582      0.0290
     70  N         34.1740   38.7680   36.2830 N.3   584  GLY584     -0.1210
     71  CA        35.3150   39.5930   35.9180 C.3   584  GLY584      0.1956
     72  C         35.6110   39.7260   34.4330 C.2   584  GLY584      0.2612
     73  O         36.5700   40.3970   34.0470 O.2   584  GLY584     -0.2717
     74  N         34.7850   39.1010   33.6000 N.am  585  TYR585     -0.1962
     75  CA        34.9610   39.1180   32.1470 C.3   585  TYR585      0.1771
     76  C         34.2700   40.3410   31.5380 C.2   585  TYR585      0.2619
     77  O         33.1180   40.2760   31.0960 O.2   585  TYR585     -0.2715
     78  CB        34.3800   37.8200   31.5740 C.3   585  TYR585      0.0574
     79  CG        34.7160   37.5110   30.1300 C.ar  585  TYR585     -0.0198
     80  CD1       34.3480   36.2850   29.5740 C.ar  585  TYR585     -0.0009
     81  CD2       35.3860   38.4280   29.3180 C.ar  585  TYR585     -0.0009
     82  CE1       34.6330   35.9770   28.2550 C.ar  585  TYR585      0.0417
     83  CE2       35.6790   38.1290   27.9860 C.ar  585  TYR585      0.0417
     84  CZ        35.2970   36.8980   27.4640 C.ar  585  TYR585      0.1957
     85  OH        35.5790   36.5680   26.1560 O.3   585  TYR585     -0.2866
     86  N         34.9910   41.4550   31.5080 N.am  586  HIS586     -0.1973
     87  CA        34.4520   42.7040   30.9930 C.3   586  HIS586      0.1656
     88  C         33.7790   42.6450   29.6180 C.2   586  HIS586      0.2291
     89  O         32.6390   43.0870   29.4680 O.2   586  HIS586     -0.2864
     90  CB        35.5440   43.7790   30.9800 C.3   586  HIS586      0.0771
     91  CG        35.0690   45.1060   30.4780 C.ar  586  HIS586      0.0820
     92  ND1       35.4000   45.5940   29.2310 N.ar  586  HIS586     -0.2267
     93  CD2       34.2500   46.0280   31.0380 C.ar  586  HIS586      0.1154
     94  CE1       34.8050   46.7580   29.0440 C.ar  586  HIS586      0.1986
     95  NE2       34.1020   47.0450   30.1260 N.ar  586  HIS586     -0.2212
     96  N         40.2440   38.0680   18.1560 N.3   742  ARG742     -0.1231
     97  CA        40.8740   36.7580   18.0410 C.3   742  ARG742      0.1694
     98  C         39.9640   35.7450   17.3600 C.2   742  ARG742      0.2592
     99  O         40.4320   34.7310   16.8440 O.2   742  ARG742     -0.2718
    100  CB        41.2170   36.2040   19.4260 C.3   742  ARG742      0.0321
    101  CG        42.2360   36.9830   20.2250 C.3   742  ARG742      0.0489
    102  CD        42.2410   36.4750   21.6590 C.3   742  ARG742      0.2205
    103  NE        42.4760   35.0330   21.7300 N.pl3 742  ARG742     -0.0865
    104  CZ        42.1610   34.2760   22.7780 C.cat 742  ARG742      0.5346
    105  NH1       41.5910   34.8230   23.8450 N.pl3 742  ARG742      0.1354
    106  NH2       42.4220   32.9750   22.7650 N.pl3 742  ARG742      0.1354
    107  N         38.6670   36.0240   17.3440 N.am  743  PHE743     -0.1976
    108  CA        37.7180   35.0700   16.7900 C.3   743  PHE743      0.1639
    109  C         37.1260   35.3430   15.4130 C.2   743  PHE743      0.2290
    110  O         36.2300   34.6270   14.9470 O.2   743  PHE743     -0.2864
    111  CB        36.6660   34.8190   17.8620 C.3   743  PHE743      0.0560
    112  CG        37.2770   34.3450   19.1410 C.ar  743  PHE743     -0.0200
    113  CD1       37.9110   33.1060   19.1890 C.ar  743  PHE743     -0.0042
    114  CD2       37.3460   35.1750   20.2530 C.ar  743  PHE743     -0.0042
    115  CE1       38.6130   32.7020   20.3250 C.ar  743  PHE743     -0.0003
    116  CE2       38.0430   34.7800   21.3910 C.ar  743  PHE743     -0.0003
    117  CZ        38.6790   33.5420   21.4240 C.ar  743  PHE743     -0.0000
@<TRIPOS>BOND
     1   110   109    2
     2   109   108    1
     3   108   107    1
     4   108   111    1
     5    99    98    2
     6   107    98   am
     7    98    97    1
     8   111   112    1
     9    97    96    1
    10    97   100    1
    11   112   113   ar
    12   112   114   ar
    13   113   115   ar
    14   100   101    1
    15   101   102    1
    16   114   116   ar
    17   115   117   ar
    18    59    58    2
    19   116   117   ar
    20    58    57    1
    21   102   103    1
    22   103   104    2
    23    57    60    1
    24    57    56    1
    25    60    61    1
    26   106   104    1
    27   104   105    1
    28    63    62   ar
    29    49    48    2
    30    61    62    1
    31    62    64   ar
    32    56    48   am
    33    48    47    1
    34    50    47    1
    35    50    51    1
    36    47    46    1
    37    45    43   ar
    38    44    43   ar
    39    85    84    1
    40    43    42    1
    41    51    52   ar
    42    51    53   ar
    43    52    54   ar
    44    84    83   ar
    45    84    82   ar
    46    37    38    1
    47    53    55   ar
    48    42    41    1
    49    83    81   ar
    50    54    55   ar
    51    82    80   ar
    52    41    38    1
    53    38    39    1
    54    94    92   ar
    55    94    95   ar
    56    16    14   ar
    57    92    91   ar
    58    81    79   ar
    59    89    88    2
    60    80    79   ar
    61    88    87    1
    62    39    40    2
    63    95    93   ar
    64    79    78    1
    65    14    15   ar
    66    14    13    1
    67    91    90    1
    68    91    93   ar
    69    12    11    2
    70    90    87    1
    71    87    86    1
    72    77    76    2
    73    11    10    1
    74    23    25   ar
    75    23    22   ar
    76    25    27   ar
    77    13    10    1
    78    86    76   am
    79    76    75    1
    80    78    75    1
    81    17    18    1
    82    18    21    1
    83    18    19    1
    84    21    22    1
    85    75    74    1
    86    10     9    1
    87    22    24   ar
    88    27    26   ar
    89     9     3   am
    90    65    66    1
    91    19    20    2
    92    24    26   ar
    93    74    72   am
    94    73    72    2
    95    68    67    2
    96    69    66    1
    97    72    71    1
    98    66    67    1
    99     3     4    2
   100     3     2    1
   101     2     5    1
   102     2     1    1
   103     5     6    1
   104    71    70    1
   105     7     6    2
   106     6     8   am
   107    28    29    1
   108    29    32    1
   109    29    30    1
   110    32    33    1
   111    30    31    2
   112    33    34    1
   113    36    34   ar
   114    34    35   ar
