@<TRIPOS>MOLECULE
tmp/1z62A01.pdb
 134 128 0 0 0
SMALL
GASTEIGER

@<TRIPOS>ATOM
      1  N         18.9920    2.0020   46.8570 N.3    56  TRP56      -0.1227
      2  CA        20.3020    2.6000   47.1000 C.3    56  TRP56       0.1737
      3  C         21.1150    1.6920   48.0290 C.2    56  TRP56       0.2595
      4  O         22.2880    1.3990   47.7710 O.2    56  TRP56      -0.2718
      5  CB        20.1090    3.9880   47.7240 C.3    56  TRP56       0.0564
      6  CG        21.3210    4.8830   47.7070 C.ar   56  TRP56       0.0003
      7  CD1       22.4740    4.7040   46.9950 C.ar   56  TRP56       0.0946
      8  CD2       21.4610    6.1400   48.3850 C.ar   56  TRP56       0.0152
      9  NE1       23.3230    5.7750   47.1840 N.ar   56  TRP56      -0.2442
     10  CE2       22.7250    6.6690   48.0330 C.ar   56  TRP56       0.0810
     11  CE3       20.6400    6.8710   49.2560 C.ar   56  TRP56       0.0012
     12  CZ2       23.1860    7.8960   48.5220 C.ar   56  TRP56       0.0191
     13  CZ3       21.0990    8.0930   49.7430 C.ar   56  TRP56       0.0001
     14  CH2       22.3620    8.5910   49.3740 C.ar   56  TRP56       0.0015
     15  N         20.4850    1.2320   49.1040 N.am   57  ILE57      -0.1980
     16  CA        21.1570    0.3570   50.0480 C.3    57  ILE57       0.1595
     17  C         21.5580   -0.9750   49.4190 C.2    57  ILE57       0.2287
     18  O         22.6880   -1.4280   49.5970 O.2    57  ILE57      -0.2864
     19  CB        20.2730    0.0830   51.2900 C.3    57  ILE57       0.0276
     20  CG1       20.1600    1.3560   52.1360 C.3    57  ILE57       0.0022
     21  CG2       20.8650   -1.0550   52.1150 C.3    57  ILE57       0.0022
     22  CD1       19.1820    1.2450   53.2850 C.3    57  ILE57       0.0001
     23  N         24.5230   -0.5880   46.7240 N.3    60  GLN60      -0.1231
     24  CA        25.8240   -0.4410   47.3660 C.3    60  GLN60       0.1698
     25  C         26.2540   -1.7260   48.0650 C.2    60  GLN60       0.2592
     26  O         27.4320   -2.0790   48.0640 O.2    60  GLN60      -0.2718
     27  CB        25.7870    0.7230   48.3570 C.3    60  GLN60       0.0381
     28  CG        25.5260    2.0670   47.6860 C.3    60  GLN60       0.0905
     29  CD        26.4640    2.3250   46.5170 C.2    60  GLN60       0.2608
     30  OE1       27.6770    2.1820   46.6430 O.2    60  GLN60      -0.2717
     31  NE2       25.9020    2.7130   45.3740 N.am   60  GLN60      -0.0878
     32  N         25.2910   -2.4210   48.6590 N.am   61  GLN61      -0.1979
     33  CA        25.5550   -3.6820   49.3370 C.3    61  GLN61       0.1601
     34  C         26.0360   -4.6780   48.2740 C.2    61  GLN61       0.2287
     35  O         26.9600   -5.4570   48.4990 O.2    61  GLN61      -0.2864
     36  CB        24.2590   -4.1670   50.0060 C.3    61  GLN61       0.0394
     37  CG        24.2670   -5.5900   50.5420 C.3    61  GLN61       0.0908
     38  CD        25.2970   -5.8130   51.6350 C.2    61  GLN61       0.2608
     39  OE1       26.5040   -5.7730   51.3860 O.2    61  GLN61      -0.2717
     40  NE2       24.8230   -6.0530   52.8570 N.am   61  GLN61      -0.0878
     41  N         29.5710   -4.2890   47.2580 N.3    64  TYR64      -0.1241
     42  CA        30.4250   -4.7850   48.3230 C.3    64  TYR64       0.1605
     43  C         30.5780   -6.3020   48.1960 C.2    64  TYR64       0.2264
     44  O         31.6660   -6.8410   48.3860 O.2    64  TYR64      -0.2867
     45  CB        29.8210   -4.4330   49.6810 C.3    64  TYR64       0.0534
     46  CG        30.6130   -4.9700   50.8480 C.ar   64  TYR64      -0.0201
     47  CD1       31.9020   -4.5070   51.1120 C.ar   64  TYR64      -0.0009
     48  CD2       30.0850   -5.9630   51.6740 C.ar   64  TYR64      -0.0009
     49  CE1       32.6480   -5.0210   52.1720 C.ar   64  TYR64       0.0417
     50  CE2       30.8200   -6.4850   52.7370 C.ar   64  TYR64       0.0417
     51  CZ        32.1000   -6.0100   52.9800 C.ar   64  TYR64       0.1957
     52  OH        32.8280   -6.5250   54.0270 O.3    64  TYR64      -0.2866
     53  N         35.7460   -0.4430   40.4030 N.3    70  ARG70      -0.1245
     54  CA        35.0820    0.8270   40.6960 C.3    70  ARG70       0.1563
     55  C         35.5380    1.9790   39.8200 C.2    70  ARG70       0.2260
     56  O         36.7300    2.1500   39.5840 O.2    70  ARG70      -0.2867
     57  CB        35.3240    1.2380   42.1450 C.3    70  ARG70       0.0307
     58  CG        34.2230    0.8810   43.0990 C.3    70  ARG70       0.0489
     59  CD        34.2660   -0.5560   43.5020 C.3    70  ARG70       0.2205
     60  NE        33.4430   -0.7680   44.6890 N.pl3  70  ARG70      -0.0865
     61  CZ        33.4460   -1.8830   45.4070 C.cat  70  ARG70       0.5346
     62  NH1       32.6660   -1.9890   46.4710 N.pl3  70  ARG70       0.1354
     63  NH2       34.2330   -2.8910   45.0600 N.pl3  70  ARG70       0.1354
     64  N         31.1210    6.1960   41.0100 N.3   144  TYR144     -0.1241
     65  CA        30.9800    7.1460   42.1040 C.3   144  TYR144      0.1605
     66  C         31.3880    8.5240   41.6280 C.2   144  TYR144      0.2264
     67  O         32.4800    8.6950   41.0910 O.2   144  TYR144     -0.2867
     68  CB        31.8940    6.7460   43.2680 C.3   144  TYR144      0.0534
     69  CG        31.6250    5.3790   43.8480 C.ar  144  TYR144     -0.0201
     70  CD1       30.8630    5.2280   45.0040 C.ar  144  TYR144     -0.0009
     71  CD2       32.1380    4.2340   43.2440 C.ar  144  TYR144     -0.0009
     72  CE1       30.6250    3.9690   45.5470 C.ar  144  TYR144      0.0417
     73  CE2       31.9040    2.9750   43.7750 C.ar  144  TYR144      0.0417
     74  CZ        31.1510    2.8480   44.9250 C.ar  144  TYR144      0.1957
     75  OH        30.9380    1.5990   45.4530 O.3   144  TYR144     -0.2866
     76  N         26.7910   12.5760   56.1130 N.3   182  ARG182     -0.1245
     77  CA        27.4390   11.4370   56.7490 C.3   182  ARG182      0.1563
     78  C         28.5910   11.9440   57.6010 C.2   182  ARG182      0.2260
     79  O         29.7560   11.6460   57.3260 O.2   182  ARG182     -0.2867
     80  CB        27.9740   10.4660   55.6960 C.3   182  ARG182      0.0307
     81  CG        26.9090    9.7460   54.8710 C.3   182  ARG182      0.0489
     82  CD        26.0320    8.8200   55.7220 C.3   182  ARG182      0.2205
     83  NE        25.2530    7.9140   54.8760 N.pl3 182  ARG182     -0.0865
     84  CZ        24.1960    7.2180   55.2850 C.cat 182  ARG182      0.5346
     85  NH1       23.5590    6.4210   54.4390 N.pl3 182  ARG182      0.1354
     86  NH2       23.7650    7.3260   56.5330 N.pl3 182  ARG182      0.1354
     87  N         26.0470   12.4880   50.7760 N.3   216  ASP216     -0.1239
     88  CA        25.8070   11.5730   49.6630 C.3   216  ASP216      0.1674
     89  C         24.4520   11.7860   49.0140 C.2   216  ASP216      0.2266
     90  O         23.4430   11.9490   49.7020 O.2   216  ASP216     -0.2867
     91  CB        25.9250   10.1250   50.1440 C.3   216  ASP216      0.1410
     92  CG        27.3390    9.7570   50.5380 C.2   216  ASP216      0.3668
     93  OD1       27.5140    8.7110   51.2020 O.co2 216  ASP216     -0.2456
     94  OD2       28.2750   10.5080   50.1810 O.co2 216  ASP216     -0.2456
     95  N         26.0300    6.4830   43.8010 N.3   229  THR229     -0.1218
     96  CA        26.2510    7.5940   44.7140 C.3   229  THR229      0.1862
     97  C         27.1080    8.7240   44.1800 C.2   229  THR229      0.2287
     98  O         28.0970    8.4870   43.4910 O.2   229  THR229     -0.2866
     99  CB        26.9370    7.0940   46.0020 C.3   229  THR229      0.1770
    100  OG1       26.1180    6.0980   46.6220 O.3   229  THR229     -0.2211
    101  CG2       27.1650    8.2460   46.9850 C.3   229  THR229      0.0375
    102  N         29.1330   11.6690   45.8660 N.3   231  ARG231     -0.1245
    103  CA        29.5710   12.1200   47.1760 C.3   231  ARG231      0.1563
    104  C         30.2370   13.4900   47.0340 C.2   231  ARG231      0.2260
    105  O         31.2060   13.6400   46.2960 O.2   231  ARG231     -0.2867
    106  CB        30.5400   11.0950   47.7770 C.3   231  ARG231      0.0307
    107  CG        31.2880   11.5900   49.0070 C.3   231  ARG231      0.0489
    108  CD        31.8830   10.4410   49.8130 C.3   231  ARG231      0.2205
    109  NE        30.8660    9.7820   50.6220 N.pl3 231  ARG231     -0.0865
    110  CZ        31.1320    8.9260   51.5990 C.cat 231  ARG231      0.5346
    111  NH1       30.1410    8.3780   52.2880 N.pl3 231  ARG231      0.1354
    112  NH2       32.3890    8.6150   51.8870 N.pl3 231  ARG231      0.1354
    113  N         40.5750    3.2630   51.0270 N.3   290  ARG290     -0.1231
    114  CA        39.8060    2.6440   52.1030 C.3   290  ARG290      0.1694
    115  C         38.9950    1.5080   51.5160 C.2   290  ARG290      0.2591
    116  O         39.0900    0.3580   51.9380 O.2   290  ARG290     -0.2718
    117  CB        38.8230    3.6490   52.7130 C.3   290  ARG290      0.0321
    118  CG        38.1630    3.1930   54.0820 C.3   290  ARG290      0.0489
    119  CD        36.6000    2.6520   53.8730 C.3   290  ARG290      0.2205
    120  NE        35.8500    3.6560   53.1430 N.pl3 290  ARG290     -0.0865
    121  CZ        34.6030    3.5520   52.6710 C.cat 290  ARG290      0.5346
    122  NH1       33.8240    2.4900   52.8220 N.pl3 290  ARG290      0.1354
    123  NH2       34.1690    4.5860   51.9950 N.pl3 290  ARG290      0.1354
    124  N         38.1870    1.8660   50.5270 N.am  291  ARG291     -0.1980
    125  CA        37.3030    0.9350   49.8510 C.3   291  ARG291      0.1597
    126  C         38.0720   -0.2020   49.1690 C.2   291  ARG291      0.2287
    127  O         37.5700   -1.3200   49.0620 O.2   291  ARG291     -0.2864
    128  CB        36.4540    1.7120   48.8380 C.3   291  ARG291      0.0334
    129  CG        35.0720    1.1460   48.5930 C.3   291  ARG291      0.0492
    130  CD        34.2820    2.0400   47.6400 C.3   291  ARG291      0.2205
    131  NE        33.3450    2.9250   48.3350 N.pl3 291  ARG291     -0.0865
    132  CZ        33.3260    4.2510   48.2230 C.cat 291  ARG291      0.5346
    133  NH1       32.4260    4.9610   48.8930 N.pl3 291  ARG291      0.1354
    134  NH2       34.2130    4.8750   47.4580 N.pl3 291  ARG291      0.1354
@<TRIPOS>BOND
     1    56    55    2
     2    55    54    1
     3    53    54    1
     4    54    57    1
     5    64    65    1
     6    67    66    2
     7    66    65    1
     8    65    68    1
     9    57    58    1
    10    58    59    1
    11    71    73   ar
    12    71    69   ar
    13    68    69    1
    14    98    97    2
    15    59    60    1
    16    73    74   ar
    17    95    96    1
    18    69    70   ar
    19    97    96    1
    20    60    61    2
    21    96    99    1
    22    74    75    1
    23    74    72   ar
    24    70    72   ar
    25    63    61    1
    26    31    29   am
    27    61    62    1
    28   102   103    1
    29    99   100    1
    30    99   101    1
    31   105   104    2
    32    29    30    2
    33    29    28    1
    34    23    24    1
    35     1     2    1
    36     7     9   ar
    37     7     6   ar
    38   104   103    1
    39     2     5    1
    40     2     3    1
    41   103   106    1
    42     9    10   ar
    43    41    42    1
    44    24    25    1
    45    24    27    1
    46   134   132    1
    47   130   131    1
    48   130   129    1
    49    28    27    1
    50     6     5    1
    51     6     8   ar
    52     4     3    2
    53   106   107    1
    54     3    15   am
    55    10     8   ar
    56    10    12   ar
    57    26    25    2
    58    25    32   am
    59    43    42    1
    60    43    44    2
    61   132   131    2
    62   132   133    1
    63    34    35    2
    64    34    33    1
    65    42    45    1
    66     8    11   ar
    67    12    14   ar
    68   129   128    1
    69    32    33    1
    70   128   125    1
    71   107   108    1
    72    89    88    1
    73    89    90    2
    74   127   126    2
    75    15    16    1
    76   126   125    1
    77    11    13   ar
    78    33    36    1
    79    14    13   ar
    80    17    18    2
    81    17    16    1
    82    88    91    1
    83    88    87    1
    84    45    46    1
    85   108   109    1
    86   125   124    1
    87    36    37    1
    88    16    19    1
    89    91    92    1
    90    94    92   ar
    91   124   115   am
    92    92    93   ar
    93    37    38    1
    94   109   110    2
    95    46    47   ar
    96    46    48   ar
    97   113   114    1
    98    47    49   ar
    99    19    21    1
   100    19    20    1
   101    39    38    2
   102   115   116    2
   103   115   114    1
   104   110   112    1
   105   110   111    1
   106    38    40   am
   107    48    50   ar
   108   123   121    1
   109   114   117    1
   110    20    22    1
   111    49    51   ar
   112   121   122    1
   113   121   120    2
   114   117   118    1
   115    50    51   ar
   116    51    52    1
   117   120   119    1
   118   119   118    1
   119    85    84    1
   120    81    80    1
   121    81    82    1
   122    83    84    2
   123    83    82    1
   124    84    86    1
   125    80    77    1
   126    76    77    1
   127    77    78    1
   128    79    78    2
