@<TRIPOS>MOLECULE
tmp/1z69D01.pdb
 97 90 0 0 0
SMALL
GASTEIGER

@<TRIPOS>ATOM
      1  N         37.1490   17.5550   13.9000 N.3     6  GLU6       -0.1245
      2  CA        36.7170   16.5400   14.8460 C.3     6  GLU6        0.1567
      3  C         36.9340   16.8680   16.3280 C.2     6  GLU6        0.2260
      4  O         37.9940   17.3740   16.7290 O.2     6  GLU6       -0.2867
      5  CB        37.4300   15.2310   14.5440 C.3     6  GLU6        0.0388
      6  CG        37.3590   14.2420   15.7000 C.3     6  GLU6        0.1160
      7  CD        38.5680   13.3560   15.7770 C.2     6  GLU6        0.3649
      8  OE1       38.4970   12.1820   15.3750 O.co2   6  GLU6       -0.2457
      9  OE2       39.6090   13.8420   16.2410 O.co2   6  GLU6       -0.2457
     10  N         36.4190   15.1650   20.3330 N.3     8  VAL8       -0.1245
     11  CA        36.1780   13.9880   21.1280 C.3     8  VAL8        0.1561
     12  C         35.4640   14.4130   22.4110 C.2     8  VAL8        0.2260
     13  O         35.9290   15.3210   23.1190 O.2     8  VAL8       -0.2867
     14  CB        37.5160   13.3520   21.4800 C.3     8  VAL8        0.0252
     15  CG1       37.3180   12.1090   22.3600 C.3     8  VAL8        0.0019
     16  CG2       38.2730   13.0860   20.1940 C.3     8  VAL8        0.0019
     17  N         35.6810   13.9600   25.2890 N.3    10  SER10      -0.1217
     18  CA        36.4400   13.7530   26.5220 C.3    10  SER10       0.1889
     19  C         36.4720   15.1190   27.2520 C.2    10  SER10       0.2288
     20  O         37.0260   15.2460   28.3320 O.2    10  SER10      -0.2866
     21  CB        37.8640   13.2240   26.2300 C.3    10  SER10       0.2089
     22  OG        38.5850   14.0210   25.2810 O.3    10  SER10      -0.2183
     23  N         33.1860   12.0740   17.9000 N.3    34  THR34      -0.1218
     24  CA        33.4490   10.6510   18.0680 C.3    34  THR34       0.1862
     25  C         32.4830   10.0070   19.0370 C.2    34  THR34       0.2287
     26  O         31.9200   10.6740   19.9310 O.2    34  THR34      -0.2866
     27  CB        34.8780   10.3890   18.5440 C.3    34  THR34       0.1770
     28  OG1       35.1240   11.1300   19.7450 O.3    34  THR34      -0.2211
     29  CG2       35.8880   10.8000   17.4420 C.3    34  THR34       0.0375
     30  N         32.2170    6.8680   21.6690 N.3    36  HIS36      -0.1241
     31  CA        32.8070    5.8050   22.4920 C.3    36  HIS36       0.1621
     32  C         32.1310    5.8340   23.8510 C.2    36  HIS36       0.2264
     33  O         32.0430    6.8940   24.4830 O.2    36  HIS36      -0.2867
     34  CB        34.3010    6.0230   22.6870 C.3    36  HIS36       0.0745
     35  CG        35.0930    5.9820   21.4210 C.ar   36  HIS36       0.0817
     36  ND1       35.3600    7.1090   20.6750 N.ar   36  HIS36      -0.2268
     37  CD2       35.6680    4.9490   20.7600 C.ar   36  HIS36       0.1154
     38  CE1       36.0690    6.7740   19.6090 C.ar   36  HIS36       0.1986
     39  NE2       36.2690    5.4680   19.6370 N.ar   36  HIS36      -0.2212
     40  N         33.0190    5.2870   26.6720 N.3    38  ASN38      -0.1225
     41  CA        33.7440    5.8590   27.7860 C.3    38  ASN38       0.1785
     42  C         33.8060    7.3780   27.8740 C.2    38  ASN38       0.2597
     43  O         34.1850    7.9090   28.9080 O.2    38  ASN38      -0.2718
     44  CB        35.1340    5.2330   27.8920 C.3    38  ASN38       0.1169
     45  CG        35.9750    5.4640   26.6750 C.2    38  ASN38       0.2627
     46  OD1       37.0020    6.1410   26.7500 O.2    38  ASN38      -0.2716
     47  ND2       35.5580    4.9030   25.5380 N.am   38  ASN38      -0.0877
     48  N         33.4200    8.0870   26.8170 N.am   39  ASN39      -0.1974
     49  CA        33.3580    9.5600   26.8790 C.3    39  ASN39       0.1688
     50  C         31.8770    9.9540   26.9580 C.2    39  ASN39       0.2292
     51  O         30.9970    9.0860   27.1020 O.2    39  ASN39      -0.2864
     52  CB        33.9900   10.2140   25.6420 C.3    39  ASN39       0.1181
     53  CG        35.5100   10.0100   25.5780 C.2    39  ASN39       0.2629
     54  OD1       36.2090   10.1840   26.5790 O.2    39  ASN39      -0.2716
     55  ND2       36.0230    9.6500   24.3970 N.am   39  ASN39      -0.0877
     56  N         51.2340   11.7820   20.4790 N.3   227  VAL227     -0.1231
     57  CA        50.3040   10.8740   21.1600 C.3   227  VAL227      0.1692
     58  C         49.2130   10.3060   20.2400 C.2   227  VAL227      0.2591
     59  O         48.9950    9.0970   20.2070 O.2   227  VAL227     -0.2718
     60  CB        49.6070   11.5780   22.3150 C.3   227  VAL227      0.0266
     61  CG1       50.5500   11.6680   23.5400 C.3   227  VAL227      0.0020
     62  CG2       49.1870   12.9960   21.8290 C.3   227  VAL227      0.0020
     63  N         48.5130   11.1640   19.5070 N.am  228  VAL228     -0.1980
     64  CA        47.4900   10.6660   18.5930 C.3   228  VAL228      0.1595
     65  C         48.1530    9.6810   17.6060 C.2   228  VAL228      0.2287
     66  O         47.6810    8.5500   17.4220 O.2   228  VAL228     -0.2864
     67  CB        46.7900   11.8420   17.8130 C.3   228  VAL228      0.0276
     68  CG1       45.9930   11.3110   16.6550 C.3   228  VAL228      0.0022
     69  CG2       45.8510   12.6100   18.7500 C.3   228  VAL228      0.0022
     70  N         48.6760    6.2020   19.0700 N.3   231  PHE231     -0.1241
     71  CA        47.4730    5.3800   19.0590 C.3   231  PHE231      0.1605
     72  C         47.1160    4.9390   17.6340 C.2   231  PHE231      0.2264
     73  O         46.6280    3.8160   17.4470 O.2   231  PHE231     -0.2867
     74  CB        46.2850    6.1130   19.7080 C.3   231  PHE231      0.0534
     75  CG        46.3080    6.1070   21.2270 C.ar  231  PHE231     -0.0203
     76  CD1       47.2530    6.8540   21.9320 C.ar  231  PHE231     -0.0042
     77  CD2       45.3860    5.3410   21.9490 C.ar  231  PHE231     -0.0042
     78  CE1       47.2820    6.8380   23.3310 C.ar  231  PHE231     -0.0003
     79  CE2       45.4010    5.3130   23.3390 C.ar  231  PHE231     -0.0003
     80  CZ        46.3510    6.0630   24.0400 C.ar  231  PHE231     -0.0000
     81  N         53.5430    7.6820   28.7280 N.3   263  PHE263     -0.1241
     82  CA        53.4250    8.6330   27.6350 C.3   263  PHE263      0.1605
     83  C         54.7040    9.4020   27.4100 C.2   263  PHE263      0.2264
     84  O         54.8770   10.0480   26.3680 O.2   263  PHE263     -0.2867
     85  CB        52.2620    9.5800   27.8850 C.3   263  PHE263      0.0534
     86  CG        50.9420    8.9880   27.5370 C.ar  263  PHE263     -0.0203
     87  CD1       50.7640    7.6060   27.5630 C.ar  263  PHE263     -0.0042
     88  CD2       49.8760    9.7990   27.1620 C.ar  263  PHE263     -0.0042
     89  CE1       49.5490    7.0380   27.2150 C.ar  263  PHE263     -0.0003
     90  CE2       48.6420    9.2450   26.8100 C.ar  263  PHE263     -0.0003
     91  CZ        48.4820    7.8550   26.8370 C.ar  263  PHE263     -0.0000
     92  N         42.0450   15.3610   15.6970 N.3   307  SER307     -0.1217
     93  CA        42.9580   15.5430   16.8260 C.3   307  SER307      0.1889
     94  C         44.4330   15.4010   16.4540 C.2   307  SER307      0.2288
     95  O         44.8030   14.5140   15.6830 O.2   307  SER307     -0.2866
     96  CB        42.5990   14.5220   17.8860 C.3   307  SER307      0.2089
     97  OG        41.2060   14.5820   18.1300 O.3   307  SER307     -0.2183
@<TRIPOS>BOND
     1     1     2    1
     2     5     2    1
     3     5     6    1
     4     2     3    1
     5     8     7   ar
     6    95    94    2
     7    92    93    1
     8     6     7    1
     9     7     9   ar
    10     3     4    2
    11    94    93    1
    12    68    67    1
    13    93    96    1
    14    66    65    2
    15    29    27    1
    16    73    72    2
    17    65    64    1
    18    72    71    1
    19    67    64    1
    20    67    69    1
    21    96    97    1
    22    23    24    1
    23    24    27    1
    24    24    25    1
    25    27    28    1
    26    64    63    1
    27    25    26    2
    28    71    70    1
    29    71    74    1
    30    63    58   am
    31    38    39   ar
    32    38    36   ar
    33    39    37   ar
    34    74    75    1
    35    16    14    1
    36    59    58    2
    37    58    57    1
    38    10    11    1
    39    56    57    1
    40    36    35   ar
    41    37    35   ar
    42    11    14    1
    43    11    12    1
    44    57    60    1
    45    75    76   ar
    46    75    77   ar
    47    35    34    1
    48    14    15    1
    49    30    31    1
    50    62    60    1
    51    76    78   ar
    52    77    79   ar
    53    60    61    1
    54    12    13    2
    55    31    34    1
    56    31    32    1
    57    78    80   ar
    58    79    80   ar
    59    32    33    2
    60    55    53   am
    61    22    21    1
    62    17    18    1
    63    47    45   am
    64    53    52    1
    65    53    54    2
    66    52    49    1
    67    21    18    1
    68    84    83    2
    69    18    19    1
    70    40    41    1
    71    45    46    2
    72    45    44    1
    73    90    91   ar
    74    90    88   ar
    75    48    49    1
    76    48    42   am
    77    91    89   ar
    78    49    50    1
    79    50    51    2
    80    88    86   ar
    81    89    87   ar
    82    19    20    2
    83    83    82    1
    84    86    87   ar
    85    86    85    1
    86    82    85    1
    87    82    81    1
    88    41    42    1
    89    41    44    1
    90    42    43    2
