@<TRIPOS>MOLECULE
tmp/1z6dA01.pdb
 109 105 0 0 0
SMALL
GASTEIGER

@<TRIPOS>ATOM
      1  N         30.4890   -4.0220   28.4440 N.3    12  HIS12      -0.1241
      2  CA        29.7270   -2.8340   28.0270 C.3    12  HIS12       0.1621
      3  C         28.2420   -2.7730   28.4000 C.2    12  HIS12       0.2264
      4  O         27.6820   -1.6910   28.3160 O.2    12  HIS12      -0.2867
      5  CB        29.8470   -2.6240   26.5110 C.3    12  HIS12       0.0745
      6  CG        31.2540   -2.5150   26.0290 C.ar   12  HIS12       0.0817
      7  ND1       32.1190   -1.5380   26.4810 N.ar   12  HIS12      -0.2268
      8  CD2       31.9470   -3.2380   25.1130 C.ar   12  HIS12       0.1154
      9  CE1       33.2910   -1.6820   25.8830 C.ar   12  HIS12       0.1986
     10  NE2       33.2090   -2.7030   25.0400 N.ar   12  HIS12      -0.2212
     11  N         42.2020   -0.9970   32.3430 N.3    41  LYS41      -0.1245
     12  CA        41.7130   -0.6490   31.0210 C.3    41  LYS41       0.1561
     13  C         41.5770    0.8760   30.9860 C.2    41  LYS41       0.2260
     14  O         40.9130    1.4470   31.8470 O.2    41  LYS41      -0.2867
     15  CB        40.3760   -1.3220   30.7040 C.3    41  LYS41       0.0271
     16  CG        39.9310   -1.0580   29.2620 C.3    41  LYS41       0.0035
     17  CD        38.7620   -1.9180   28.8680 C.3    41  LYS41       0.0206
     18  CE        38.3130   -1.5570   27.4670 C.3    41  LYS41       0.1093
     19  NZ        37.0360   -2.2280   27.1480 N.3    41  LYS41      -0.1314
     20  N         40.0470    3.2420   29.0840 N.3    43  VAL43      -0.1231
     21  CA        38.7160    3.8310   28.9290 C.3    43  VAL43       0.1692
     22  C         37.7440    2.7320   28.5680 C.2    43  VAL43       0.2592
     23  O         38.1020    1.7930   27.8520 O.2    43  VAL43      -0.2718
     24  CB        38.6810    4.9790   27.8720 C.3    43  VAL43       0.0266
     25  CG1       39.0020    4.4860   26.4750 C.3    43  VAL43       0.0020
     26  CG2       37.3310    5.7090   27.8850 C.3    43  VAL43       0.0020
     27  N         36.5320    2.8230   29.1050 N.am   44  ASN44      -0.1960
     28  CA        35.4970    1.8290   28.8400 C.3    44  ASN44       0.1819
     29  C         34.1520    2.4650   29.0530 C.2    44  ASN44       0.2621
     30  O         33.9640    3.2020   30.0180 O.2    44  ASN44      -0.2715
     31  CB        35.6190    0.6560   29.8040 C.3    44  ASN44       0.1195
     32  CG        34.6580   -0.4650   29.4820 C.2    44  ASN44       0.2630
     33  OD1       34.8570   -1.1790   28.4960 O.2    44  ASN44      -0.2716
     34  ND2       33.5990   -0.6260   30.2960 N.am   44  ASN44      -0.0877
     35  N         33.2120    2.1430   28.1720 N.am   45  THR45      -0.1951
     36  CA        31.8360    2.6180   28.2780 C.3    45  THR45       0.1897
     37  C         30.8400    1.5240   28.6220 C.2    45  THR45       0.2313
     38  O         30.8970    0.4090   28.0660 O.2    45  THR45      -0.2863
     39  CB        31.4200    3.2670   26.9500 C.3    45  THR45       0.1794
     40  OG1       32.3220    4.3450   26.6530 O.3    45  THR45      -0.2208
     41  CG2       29.9640    3.8110   27.0180 C.3    45  THR45       0.0378
     42  N         36.6460    3.6000   13.4750 N.3    66  LYS66      -0.1245
     43  CA        37.8940    4.3290   13.6610 C.3    66  LYS66       0.1561
     44  C         39.0750    3.6500   12.9790 C.2    66  LYS66       0.2260
     45  O         39.9690    4.3390   12.4980 O.2    66  LYS66      -0.2867
     46  CB        38.1770    4.5490   15.1450 C.3    66  LYS66       0.0271
     47  CG        37.3610    5.6640   15.7180 C.3    66  LYS66       0.0035
     48  CD        37.5050    5.6370   17.2070 C.3    66  LYS66       0.0206
     49  CE        36.8000    6.7870   17.8650 C.3    66  LYS66       0.1093
     50  NZ        37.0980    6.6460   19.3280 N.3    66  LYS66      -0.1314
     51  N         30.6450    6.7200   30.8750 N.3    83  ASP83      -0.1239
     52  CA        32.0290    6.7150   30.4660 C.3    83  ASP83       0.1674
     53  C         32.9170    6.5410   31.6970 C.2    83  ASP83       0.2266
     54  O         32.7530    7.2510   32.6950 O.2    83  ASP83      -0.2867
     55  CB        32.3500    8.0390   29.7760 C.3    83  ASP83       0.1410
     56  CG        33.7620    8.1170   29.2970 C.2    83  ASP83       0.3668
     57  OD1       34.6440    8.4450   30.1190 O.co2  83  ASP83      -0.2456
     58  OD2       33.9960    7.8800   28.0840 O.co2  83  ASP83      -0.2456
     59  N         36.8830    6.6670   32.6700 N.3    85  ARG85      -0.1245
     60  CA        38.2050    7.0730   32.1880 C.3    85  ARG85       0.1563
     61  C         39.2130    7.0220   33.3150 C.2    85  ARG85       0.2260
     62  O         38.9790    7.6040   34.3690 O.2    85  ARG85      -0.2867
     63  CB        38.1550    8.4920   31.6100 C.3    85  ARG85       0.0307
     64  CG        39.4820    8.9740   30.9990 C.3    85  ARG85       0.0489
     65  CD        40.0300    7.9600   29.9950 C.3    85  ARG85       0.2205
     66  NE        40.7310    8.5630   28.8600 N.pl3  85  ARG85      -0.0865
     67  CZ        40.1260    9.0790   27.7890 C.cat  85  ARG85       0.5346
     68  NH1       40.8470    9.5840   26.8000 N.pl3  85  ARG85       0.1354
     69  NH2       38.7970    9.1050   27.7100 N.pl3  85  ARG85       0.1354
     70  N         32.5090   -4.8550   19.6570 N.3   119  HIS119     -0.1226
     71  CA        33.4580   -3.8300   20.0790 C.3   119  HIS119      0.1752
     72  C         32.7310   -2.5190   20.1910 C.2   119  HIS119      0.2596
     73  O         31.8320   -2.2510   19.3950 O.2   119  HIS119     -0.2718
     74  CB        34.6460   -3.7600   19.0980 C.3   119  HIS119      0.0759
     75  CG        35.2620   -2.4030   18.9230 C.ar  119  HIS119      0.0818
     76  ND1       36.1820   -1.8740   19.8170 N.ar  119  HIS119     -0.2268
     77  CD2       35.1520   -1.4980   17.9190 C.ar  119  HIS119      0.1154
     78  CE1       36.5900   -0.6940   19.3740 C.ar  119  HIS119      0.1986
     79  NE2       35.9840   -0.4460   18.2250 N.ar  119  HIS119     -0.2212
     80  N         33.0950   -1.7280   21.2010 N.am  120  PHE120     -0.1962
     81  CA        32.5150   -0.4180   21.3740 C.3   120  PHE120      0.1771
     82  C         33.4800    0.5650   20.7540 C.2   120  PHE120      0.2620
     83  O         34.5970    0.6550   21.2040 O.2   120  PHE120     -0.2715
     84  CB        32.3490   -0.1070   22.8550 C.3   120  PHE120      0.0574
     85  CG        31.5510    1.1380   23.1000 C.ar  120  PHE120     -0.0200
     86  CD1       32.1720    2.3910   23.0090 C.ar  120  PHE120     -0.0042
     87  CD2       30.1760    1.0530   23.3400 C.ar  120  PHE120     -0.0042
     88  CE1       31.4220    3.5680   23.2260 C.ar  120  PHE120     -0.0003
     89  CE2       29.4220    2.2280   23.5320 C.ar  120  PHE120     -0.0003
     90  CZ        30.0460    3.4690   23.4630 C.ar  120  PHE120     -0.0000
     91  N         33.0550    1.2870   19.7120 N.am  121  ASP121     -0.1957
     92  CA        33.9720    2.1700   19.0010 C.3   121  ASP121      0.1840
     93  C         34.0220    3.6210   19.4670 C.2   121  ASP121      0.2622
     94  O         35.1020    4.2410   19.4870 O.2   121  ASP121     -0.2715
     95  CB        33.6570    2.1450   17.5040 C.3   121  ASP121      0.1450
     96  CG        34.8820    2.4450   16.6250 C.2   121  ASP121      0.3671
     97  OD1       35.9810    1.8810   16.8960 O.co2 121  ASP121     -0.2456
     98  OD2       34.7600    3.2030   15.6420 O.co2 121  ASP121     -0.2456
     99  N         32.8600    4.1910   19.7290 N.am  122  ALA122     -0.1963
    100  CA        32.7790    5.6190   19.9980 C.3   122  ALA122      0.1728
    101  C         31.4000    5.9880   20.5080 C.2   122  ALA122      0.2616
    102  O         30.4540    5.2500   20.3480 O.2   122  ALA122     -0.2715
    103  CB        33.0790    6.3770   18.7310 C.3   122  ALA122      0.0334
    104  N         31.2980    7.1590   21.1400 N.am  123  SER123     -0.1950
    105  CA        29.9930    7.7450   21.4600 C.3   123  SER123      0.1924
    106  C         30.0010    9.1430   20.8900 C.2   123  SER123      0.2314
    107  O         31.0080    9.8340   20.9870 O.2   123  SER123     -0.2863
    108  CB        29.7320    7.7780   22.9680 C.3   123  SER123      0.2116
    109  OG        30.7650    8.4490   23.6690 O.3   123  SER123     -0.2180
@<TRIPOS>BOND
     1    45    44    2
     2    44    43    1
     3    42    43    1
     4    43    46    1
     5    46    47    1
     6    98    96   ar
     7    47    48    1
     8    96    97   ar
     9    96    95    1
    10    48    49    1
    11    95    92    1
    12    49    50    1
    13    77    79   ar
    14    77    75   ar
    15    79    78   ar
    16   103   100    1
    17    75    74    1
    18    75    76   ar
    19    92    93    1
    20    92    91    1
    21    74    71    1
    22    78    76   ar
    23    73    72    2
    24    93    94    2
    25    93    99   am
    26    70    71    1
    27    91    82   am
    28    99   100    1
    29   100   101    1
    30    71    72    1
    31    72    80   am
    32   102   101    2
    33   101   104   am
    34    82    83    2
    35    82    81    1
    36   106   107    2
    37   106   105    1
    38   104   105    1
    39    80    81    1
    40    81    84    1
    41   105   108    1
    42    84    85    1
    43   108   109    1
    44    86    85   ar
    45    86    88   ar
    46    85    87   ar
    47    88    90   ar
    48    87    89   ar
    49    90    89   ar
    50    10     8   ar
    51    10     9   ar
    52     8     6   ar
    53     9     7   ar
    54     6     7   ar
    55     6     5    1
    56    25    24    1
    57     5     2    1
    58    40    39    1
    59    68    67    1
    60    39    41    1
    61    39    36    1
    62    19    18    1
    63    18    17    1
    64    69    67    1
    65    67    66    2
    66    23    22    2
    67    24    26    1
    68    24    21    1
    69     2     3    1
    70     2     1    1
    71    38    37    2
    72    58    56   ar
    73    35    36    1
    74    35    29   am
    75    36    37    1
    76     4     3    2
    77    33    32    2
    78    22    21    1
    79    22    27   am
    80    28    29    1
    81    28    27    1
    82    28    31    1
    83    66    65    1
    84    17    16    1
    85    21    20    1
    86    29    30    2
    87    16    15    1
    88    56    55    1
    89    56    57   ar
    90    32    31    1
    91    32    34   am
    92    55    52    1
    93    65    64    1
    94    52    51    1
    95    52    53    1
    96    15    12    1
    97    13    12    1
    98    13    14    2
    99    64    63    1
   100    12    11    1
   101    63    60    1
   102    53    54    2
   103    60    59    1
   104    60    61    1
   105    61    62    2
