@<TRIPOS>MOLECULE
tmp/1z6dA00.pdb
 118 113 0 0 0
SMALL
GASTEIGER

@<TRIPOS>ATOM
      1  N         33.2850  -13.4020   21.5610 N.3     4  ALA4       -0.1245
      2  CA        33.3910  -11.9460   21.3940 C.3     4  ALA4        0.1562
      3  C         32.1090  -11.2450   21.8360 C.2     4  ALA4        0.2260
      4  O         32.1560  -10.1530   22.4390 O.2     4  ALA4       -0.2867
      5  CB        33.7020  -11.6120   19.9400 C.3     4  ALA4        0.0290
      6  N         31.9660  -11.2340   25.6080 N.3     7  LYS7       -0.1231
      7  CA        32.9190  -10.2230   26.0580 C.3     7  LYS7        0.1693
      8  C         32.3090   -8.8230   25.9130 C.2     7  LYS7        0.2592
      9  O         32.4370   -8.0000   26.8210 O.2     7  LYS7       -0.2718
     10  CB        34.2560  -10.3280   25.3340 C.3     7  LYS7        0.0285
     11  CG        35.2430   -9.2210   25.6860 C.3     7  LYS7        0.0035
     12  CD        36.6680   -9.5530   25.3010 C.3     7  LYS7        0.0206
     13  CE        36.7980   -9.7760   23.8230 C.3     7  LYS7        0.1093
     14  NZ        38.2340  -10.0920   23.5050 N.3     7  LYS7       -0.1314
     15  N         31.6230   -8.5580   24.7970 N.am    8  PHE8       -0.1976
     16  CA        31.0040   -7.2480   24.6470 C.3     8  PHE8        0.1639
     17  C         29.9870   -7.0330   25.7610 C.2     8  PHE8        0.2290
     18  O         29.8960   -5.9420   26.3120 O.2     8  PHE8       -0.2864
     19  CB        30.3790   -7.0810   23.2430 C.3     8  PHE8        0.0560
     20  CG        29.6400   -5.7740   23.0580 C.ar    8  PHE8       -0.0200
     21  CD1       30.2800   -4.6850   22.4760 C.ar    8  PHE8       -0.0042
     22  CD2       28.3480   -5.6200   23.5340 C.ar    8  PHE8       -0.0042
     23  CE1       29.5930   -3.4680   22.3260 C.ar    8  PHE8       -0.0003
     24  CE2       27.6790   -4.4270   23.4280 C.ar    8  PHE8       -0.0003
     25  CZ        28.3050   -3.3280   22.8240 C.ar    8  PHE8       -0.0000
     26  N         31.8790   -6.3390   29.0620 N.3    11  GLN11      -0.1231
     27  CA        32.5810   -5.0550   29.1410 C.3    11  GLN11       0.1698
     28  C         31.6470   -3.8690   29.0910 C.2    11  GLN11       0.2592
     29  O         31.9900   -2.8060   29.6210 O.2    11  GLN11      -0.2718
     30  CB        33.5590   -4.9310   27.9880 C.3    11  GLN11       0.0381
     31  CG        34.6840   -5.9420   28.0460 C.3    11  GLN11       0.0905
     32  CD        35.8160   -5.5010   27.1670 C.2    11  GLN11       0.2608
     33  OE1       36.8580   -5.0630   27.6500 O.2    11  GLN11      -0.2717
     34  NE2       35.6010   -5.5630   25.8530 N.am   11  GLN11      -0.0878
     35  N         30.4890   -4.0220   28.4440 N.am   12  HIS12      -0.1976
     36  CA        29.7270   -2.8340   28.0270 C.3    12  HIS12       0.1656
     37  C         28.2420   -2.7730   28.4000 C.2    12  HIS12       0.2291
     38  O         27.6820   -1.6910   28.3160 O.2    12  HIS12      -0.2864
     39  CB        29.8470   -2.6240   26.5110 C.3    12  HIS12       0.0771
     40  CG        31.2540   -2.5150   26.0290 C.ar   12  HIS12       0.0820
     41  ND1       32.1190   -1.5380   26.4810 N.ar   12  HIS12      -0.2267
     42  CD2       31.9470   -3.2380   25.1130 C.ar   12  HIS12       0.1154
     43  CE1       33.2910   -1.6820   25.8830 C.ar   12  HIS12       0.1986
     44  NE2       33.2090   -2.7030   25.0400 N.ar   12  HIS12      -0.2212
     45  N         42.2020   -0.9970   32.3430 N.3    41  LYS41      -0.1245
     46  CA        41.7130   -0.6490   31.0210 C.3    41  LYS41       0.1561
     47  C         41.5770    0.8760   30.9860 C.2    41  LYS41       0.2260
     48  O         40.9130    1.4470   31.8470 O.2    41  LYS41      -0.2867
     49  CB        40.3760   -1.3220   30.7040 C.3    41  LYS41       0.0271
     50  CG        39.9310   -1.0580   29.2620 C.3    41  LYS41       0.0035
     51  CD        38.7620   -1.9180   28.8680 C.3    41  LYS41       0.0206
     52  CE        38.3130   -1.5570   27.4670 C.3    41  LYS41       0.1093
     53  NZ        37.0360   -2.2280   27.1480 N.3    41  LYS41      -0.1314
     54  N         40.0470    3.2420   29.0840 N.3    43  VAL43      -0.1231
     55  CA        38.7160    3.8310   28.9290 C.3    43  VAL43       0.1692
     56  C         37.7440    2.7320   28.5680 C.2    43  VAL43       0.2592
     57  O         38.1020    1.7930   27.8520 O.2    43  VAL43      -0.2718
     58  CB        38.6810    4.9790   27.8720 C.3    43  VAL43       0.0266
     59  CG1       39.0020    4.4860   26.4750 C.3    43  VAL43       0.0020
     60  CG2       37.3310    5.7090   27.8850 C.3    43  VAL43       0.0020
     61  N         36.5320    2.8230   29.1050 N.am   44  ASN44      -0.1974
     62  CA        35.4970    1.8290   28.8400 C.3    44  ASN44       0.1688
     63  C         34.1520    2.4650   29.0530 C.2    44  ASN44       0.2292
     64  O         33.9640    3.2020   30.0180 O.2    44  ASN44      -0.2864
     65  CB        35.6190    0.6560   29.8040 C.3    44  ASN44       0.1181
     66  CG        34.6580   -0.4650   29.4820 C.2    44  ASN44       0.2629
     67  OD1       34.8570   -1.1790   28.4960 O.2    44  ASN44      -0.2716
     68  ND2       33.5990   -0.6260   30.2960 N.am   44  ASN44      -0.0877
     69  N         32.3820   -2.1250    9.3200 N.3    71  ASN71      -0.1240
     70  CA        31.3470   -2.8150   10.0770 C.3    71  ASN71       0.1653
     71  C         30.9400   -2.1540   11.3610 C.2    71  ASN71       0.2266
     72  O         30.6450   -2.8160   12.3450 O.2    71  ASN71      -0.2867
     73  CB        31.7530   -4.2750   10.3620 C.3    71  ASN71       0.1155
     74  CG        32.9900   -4.3960   11.2360 C.2    71  ASN71       0.2627
     75  OD1       34.0180   -3.7430   10.9790 O.2    71  ASN71      -0.2716
     76  ND2       32.9500   -5.3050   12.2160 N.am   71  ASN71      -0.0877
     77  N         31.0690   -1.9880   16.6380 N.3   109  ALA109     -0.1245
     78  CA        31.3600   -2.8630   15.5010 C.3   109  ALA109      0.1562
     79  C         30.5990   -4.1540   15.6910 C.2   109  ALA109      0.2260
     80  O         30.5260   -4.6690   16.8180 O.2   109  ALA109     -0.2867
     81  CB        32.8360   -3.1440   15.4470 C.3   109  ALA109      0.0290
     82  N         29.8750   -8.2380   14.2290 N.3   111  GLU111     -0.1245
     83  CA        30.4140   -9.3830   13.4920 C.3   111  GLU111      0.1567
     84  C         29.5840  -10.5950   13.8080 C.2   111  GLU111      0.2260
     85  O         28.8920  -10.6510   14.8250 O.2   111  GLU111     -0.2867
     86  CB        31.8640   -9.6820   13.9070 C.3   111  GLU111      0.0388
     87  CG        32.8300   -8.5990   13.5170 C.3   111  GLU111      0.1160
     88  CD        34.2710   -8.9500   13.7980 C.2   111  GLU111      0.3649
     89  OE1       34.6040   -9.4630   14.8920 O.co2 111  GLU111     -0.2457
     90  OE2       35.1010   -8.6400   12.9250 O.co2 111  GLU111     -0.2457
     91  N         30.4770   -6.5660   18.9240 N.3   118  VAL118     -0.1231
     92  CA        31.7190   -7.1830   19.4170 C.3   118  VAL118      0.1692
     93  C         32.7810   -6.1550   19.8280 C.2   118  VAL118      0.2592
     94  O         33.8360   -6.5240   20.3200 O.2   118  VAL118     -0.2718
     95  CB        32.3020   -8.1650   18.3790 C.3   118  VAL118      0.0266
     96  CG1       31.3580   -9.3520   18.1770 C.3   118  VAL118      0.0020
     97  CG2       32.5470   -7.4620   17.0430 C.3   118  VAL118      0.0020
     98  N         32.5090   -4.8550   19.6570 N.am  119  HIS119     -0.1962
     99  CA        33.4580   -3.8300   20.0790 C.3   119  HIS119      0.1787
    100  C         32.7310   -2.5190   20.1910 C.2   119  HIS119      0.2620
    101  O         31.8320   -2.2510   19.3950 O.2   119  HIS119     -0.2715
    102  CB        34.6460   -3.7600   19.0980 C.3   119  HIS119      0.0785
    103  CG        35.2620   -2.4030   18.9230 C.ar  119  HIS119      0.0821
    104  ND1       36.1820   -1.8740   19.8170 N.ar  119  HIS119     -0.2267
    105  CD2       35.1520   -1.4980   17.9190 C.ar  119  HIS119      0.1154
    106  CE1       36.5900   -0.6940   19.3740 C.ar  119  HIS119      0.1986
    107  NE2       35.9840   -0.4460   18.2250 N.ar  119  HIS119     -0.2212
    108  N         33.0950   -1.7280   21.2010 N.am  120  PHE120     -0.1974
    109  CA        32.5150   -0.4180   21.3740 C.3   120  PHE120      0.1639
    110  C         33.4800    0.5650   20.7540 C.2   120  PHE120      0.2290
    111  O         34.5970    0.6550   21.2040 O.2   120  PHE120     -0.2864
    112  CB        32.3490   -0.1070   22.8550 C.3   120  PHE120      0.0560
    113  CG        31.5510    1.1380   23.1000 C.ar  120  PHE120     -0.0200
    114  CD1       32.1720    2.3910   23.0090 C.ar  120  PHE120     -0.0042
    115  CD2       30.1760    1.0530   23.3400 C.ar  120  PHE120     -0.0042
    116  CE1       31.4220    3.5680   23.2260 C.ar  120  PHE120     -0.0003
    117  CE2       29.4220    2.2280   23.5320 C.ar  120  PHE120     -0.0003
    118  CZ        30.0460    3.4690   23.4630 C.ar  120  PHE120     -0.0000
@<TRIPOS>BOND
     1    69    70    1
     2    70    73    1
     3    70    71    1
     4    73    74    1
     5    75    74    2
     6    74    76   am
     7    71    72    2
     8    90    88   ar
     9    83    84    1
    10    83    86    1
    11    83    82    1
    12    87    88    1
    13    87    86    1
    14    88    89   ar
    15    84    85    2
    16    81    78    1
    17    78    79    1
    18    78    77    1
    19    79    80    2
    20    97    95    1
    21   105   107   ar
    22   105   103   ar
    23    96    95    1
    24   107   106   ar
    25    95    92    1
    26   103   102    1
    27   103   104   ar
    28    91    92    1
    29   102    99    1
    30   106   104   ar
    31   101   100    2
    32    92    93    1
    33    98    93   am
    34    98    99    1
    35    93    94    2
    36     5     2    1
    37    99   100    1
    38   100   108   am
    39   110   111    2
    40   110   109    1
    41   108   109    1
    42   109   112    1
    43     2     1    1
    44     2     3    1
    45     3     4    2
    46    23    21   ar
    47    23    25   ar
    48    21    20   ar
    49    25    24   ar
    50   112   113    1
    51   114   113   ar
    52   114   116   ar
    53    20    19    1
    54    20    22   ar
    55   113   115   ar
    56   116   118   ar
    57    19    16    1
    58   115   117   ar
    59    24    22   ar
    60   118   117   ar
    61    14    13    1
    62    13    12    1
    63    16    15    1
    64    16    17    1
    65    15     8   am
    66    44    42   ar
    67    44    43   ar
    68    42    40   ar
    69    12    11    1
    70    10    11    1
    71    10     7    1
    72     6     7    1
    73    17    18    2
    74    34    32   am
    75    43    41   ar
    76     8     7    1
    77     8     9    2
    78    40    41   ar
    79    40    39    1
    80    59    58    1
    81    39    36    1
    82    53    52    1
    83    32    33    2
    84    32    31    1
    85    52    51    1
    86    57    56    2
    87    58    60    1
    88    58    55    1
    89    30    31    1
    90    30    27    1
    91    36    37    1
    92    36    35    1
    93    38    37    2
    94    35    28   am
    95    67    66    2
    96    56    55    1
    97    56    61   am
    98    62    63    1
    99    62    61    1
   100    62    65    1
   101    51    50    1
   102    55    54    1
   103    63    64    2
   104    26    27    1
   105    28    27    1
   106    28    29    2
   107    50    49    1
   108    66    65    1
   109    66    68   am
   110    49    46    1
   111    47    46    1
   112    47    48    2
   113    46    45    1
