@<TRIPOS>MOLECULE
tmp/1z6eA00.pdb
 217 215 0 0 0
SMALL
GASTEIGER

@<TRIPOS>ATOM
      1  N         14.0310   25.2520   64.4100 N.3    42  HIS42      -0.1241
      2  CA        12.5780   25.2720   64.4590 C.3    42  HIS42       0.1621
      3  C         11.9500   23.9230   64.1440 C.2    42  HIS42       0.2264
      4  O         10.7790   23.6970   64.4220 O.2    42  HIS42      -0.2867
      5  CB        12.0010   26.3610   63.5270 C.3    42  HIS42       0.0745
      6  CG        11.8040   25.9310   62.1030 C.ar   42  HIS42       0.0817
      7  ND1       12.6570   26.3080   61.0880 N.ar   42  HIS42      -0.2268
      8  CD2       10.8150   25.2160   61.5140 C.ar   42  HIS42       0.1154
      9  CE1       12.2000   25.8490   59.9360 C.ar   42  HIS42       0.1986
     10  NE2       11.0840   25.1820   60.1670 N.ar   42  HIS42      -0.2212
     11  N         11.1280   31.3900   68.0450 N.3    82  LYS82      -0.1231
     12  CA        10.1300   31.2740   66.9930 C.3    82  LYS82       0.1693
     13  C          9.4820   32.6170   66.7220 C.2    82  LYS82       0.2592
     14  O          8.7070   32.7650   65.7790 O.2    82  LYS82      -0.2718
     15  CB         9.0450   30.2740   67.3920 C.3    82  LYS82       0.0285
     16  CG         8.2280   30.6860   68.6140 C.3    82  LYS82       0.0035
     17  CD         9.0870   30.7530   69.8720 C.3    82  LYS82       0.0206
     18  CE         9.8210   29.4340   70.1150 C.3    82  LYS82       0.1093
     19  NZ         8.8780   28.2780   70.1950 N.3    82  LYS82      -0.1314
     20  N          9.7920   33.5960   67.5610 N.am   83  GLU83      -0.1966
     21  CA         9.2290   34.9280   67.4070 C.3    83  GLU83       0.1733
     22  C          9.8870   35.6610   66.2470 C.2    83  GLU83       0.2617
     23  O          9.2490   36.4670   65.5690 O.2    83  GLU83      -0.2715
     24  CB         9.3980   35.7250   68.7090 C.3    83  GLU83       0.0429
     25  CG         8.6730   35.1020   69.9030 C.3    83  GLU83       0.1163
     26  CD         7.1620   35.0470   69.7220 C.2    83  GLU83       0.3649
     27  OE1        6.4970   34.3130   70.4830 O.co2  83  GLU83      -0.2457
     28  OE2        6.6370   35.7430   68.8290 O.co2  83  GLU83      -0.2457
     29  N         11.1580   35.3590   66.0070 N.am   84  THR84      -0.1937
     30  CA        11.9010   36.0080   64.9410 C.3    84  THR84       0.2028
     31  C         12.5360   35.0170   63.9700 C.2    84  THR84       0.2642
     32  O         12.9480   35.3960   62.8710 O.2    84  THR84      -0.2714
     33  CB        13.0290   36.8690   65.5260 C.3    84  THR84       0.1808
     34  OG1       13.9180   36.0370   66.2850 O.3    84  THR84      -0.2208
     35  CG2       12.4600   37.9550   66.4400 C.3    84  THR84       0.0379
     36  N         12.6110   33.7520   64.3800 N.am   85  TYR85      -0.1973
     37  CA        13.2410   32.7010   63.5770 C.3    85  TYR85       0.1639
     38  C         14.7370   32.9760   63.4270 C.2    85  TYR85       0.2290
     39  O         15.3860   32.4830   62.5070 O.2    85  TYR85      -0.2864
     40  CB        12.5840   32.5780   62.1950 C.3    85  TYR85       0.0560
     41  CG        11.4870   31.5340   62.1420 C.ar   85  TYR85      -0.0198
     42  CD1       10.3610   31.6260   62.9660 C.ar   85  TYR85      -0.0009
     43  CD2       11.5840   30.4380   61.2830 C.ar   85  TYR85      -0.0009
     44  CE1        9.3560   30.6410   62.9360 C.ar   85  TYR85       0.0417
     45  CE2       10.5840   29.4480   61.2430 C.ar   85  TYR85       0.0417
     46  CZ         9.4780   29.5580   62.0700 C.ar   85  TYR85       0.1957
     47  OH         8.4950   28.5960   62.0310 O.3    85  TYR85      -0.2866
     48  N          6.9480   20.1850   50.2650 N.3   132  ARG132     -0.1245
     49  CA         5.8740   20.5070   49.3240 C.3   132  ARG132      0.1563
     50  C          6.4060   20.8970   47.9590 C.2   132  ARG132      0.2260
     51  O          7.4800   21.4790   47.8560 O.2   132  ARG132     -0.2867
     52  CB         5.0330   21.6600   49.8690 C.3   132  ARG132      0.0307
     53  CG         4.1640   21.3130   51.0650 C.3   132  ARG132      0.0489
     54  CD         3.6780   22.5810   51.7400 C.3   132  ARG132      0.2205
     55  NE         2.5400   22.3840   52.6380 N.pl3 132  ARG132     -0.0865
     56  CZ         2.4880   21.4940   53.6250 C.cat 132  ARG132      0.5346
     57  NH1        3.5110   20.6800   53.8690 N.pl3 132  ARG132      0.1354
     58  NH2        1.4070   21.4320   54.3890 N.pl3 132  ARG132      0.1354
     59  N          2.7680   25.4640   47.2390 N.3   135  GLU135     -0.1245
     60  CA         2.3900   26.0040   48.5410 C.3   135  GLU135      0.1567
     61  C          1.2040   25.3070   49.1760 C.2   135  GLU135      0.2260
     62  O          1.2010   25.0290   50.3870 O.2   135  GLU135     -0.2867
     63  CB         2.0960   27.5020   48.4370 C.3   135  GLU135      0.0388
     64  CG         2.1420   28.2080   49.7810 C.3   135  GLU135      0.1160
     65  CD         1.8460   29.6910   49.6790 C.2   135  GLU135      0.3649
     66  OE1        2.4590   30.3630   48.8200 O.co2 135  GLU135     -0.2457
     67  OE2        1.0030   30.1870   50.4630 O.co2 135  GLU135     -0.2457
     68  N          9.2110   40.5830   57.4010 N.3   162  PHE162     -0.1227
     69  CA         9.8780   40.3030   58.6620 C.3   162  PHE162      0.1736
     70  C         11.3550   40.6410   58.5620 C.2   162  PHE162      0.2595
     71  O         11.9490   40.6130   57.4830 O.2   162  PHE162     -0.2718
     72  CB         9.6730   38.8360   59.0350 C.3   162  PHE162      0.0547
     73  CG         8.2280   38.4490   59.1230 C.ar  162  PHE162     -0.0202
     74  CD1        7.4590   38.8180   60.2270 C.ar  162  PHE162     -0.0042
     75  CD2        7.6120   37.7730   58.0700 C.ar  162  PHE162     -0.0042
     76  CE1        6.0930   38.5240   60.2760 C.ar  162  PHE162     -0.0003
     77  CE2        6.2520   37.4770   58.1100 C.ar  162  PHE162     -0.0003
     78  CZ         5.4920   37.8510   59.2130 C.ar  162  PHE162     -0.0000
     79  N         11.9490   40.9600   59.7000 N.am  163  ILE163     -0.1980
     80  CA        13.3500   41.3320   59.7430 C.3   163  ILE163      0.1595
     81  C         14.3310   40.2250   59.3750 C.2   163  ILE163      0.2287
     82  O         14.3310   39.1440   59.9690 O.2   163  ILE163     -0.2864
     83  CB        13.6870   41.8990   61.1350 C.3   163  ILE163      0.0276
     84  CG1       12.9730   43.2460   61.2930 C.3   163  ILE163      0.0022
     85  CG2       15.1910   42.0360   61.3100 C.3   163  ILE163      0.0022
     86  CD1       12.8780   43.7340   62.7060 C.3   163  ILE163      0.0001
     87  N         11.1450   27.4870   44.2520 N.3   179  ASP179     -0.1225
     88  CA        11.4790   27.9090   45.6120 C.3   179  ASP179      0.1805
     89  C         11.4900   26.6650   46.5010 C.2   179  ASP179      0.2598
     90  O         11.0600   25.5920   46.0890 O.2   179  ASP179     -0.2718
     91  CB        10.3970   28.8980   46.0870 C.3   179  ASP179      0.1424
     92  CG        10.8110   29.7170   47.3060 C.2   179  ASP179      0.3668
     93  OD1       12.0020   29.7020   47.6800 O.co2 179  ASP179     -0.2456
     94  OD2        9.9310   30.3940   47.8800 O.co2 179  ASP179     -0.2456
     95  N         12.0230   26.7960   47.7060 N.am  180  ALA180     -0.1966
     96  CA        12.0010   25.6860   48.6450 C.3   180  ALA180      0.1728
     97  C         10.5920   25.8640   49.2050 C.2   180  ALA180      0.2616
     98  O          9.8850   26.7940   48.8070 O.2   180  ALA180     -0.2715
     99  CB        13.0500   25.8820   49.7440 C.3   180  ALA180      0.0334
    100  N         10.1670   25.0000   50.1150 N.am  181  CYS181     -0.1954
    101  CA         8.8310   25.1490   50.6570 C.3   181  CYS181      0.1843
    102  C          8.7330   24.3890   51.9680 C.2   181  CYS181      0.2625
    103  O          9.7180   23.8270   52.4380 O.2   181  CYS181     -0.2714
    104  CB         7.8070   24.6270   49.6420 C.3   181  CYS181      0.0997
    105  SG         6.0610   24.9830   50.0180 S.3   181  CYS181     -0.0797
    106  N          7.5440   24.3920   52.5620 N.am  182  GLN182     -0.1977
    107  CA         7.2920   23.6940   53.8210 C.3   182  GLN182      0.1601
    108  C          7.7460   22.2360   53.6920 C.2   182  GLN182      0.2287
    109  O          7.4050   21.5470   52.7230 O.2   182  GLN182     -0.2864
    110  CB         5.7900   23.7690   54.1410 C.3   182  GLN182      0.0394
    111  CG         5.3970   23.3050   55.5320 C.3   182  GLN182      0.0908
    112  CD         6.0200   24.1600   56.6160 C.2   182  GLN182      0.2608
    113  OE1        5.6460   25.3250   56.8030 O.2   182  GLN182     -0.2717
    114  NE2        6.9920   23.5920   57.3320 N.am  182  GLN182     -0.0878
    115  N         12.4940   22.6660   55.1830 N.3   185  SER185     -0.1217
    116  CA        13.1420   23.3270   56.3110 C.3   185  SER185      0.1889
    117  C         14.2060   22.4320   56.9350 C.2   185  SER185      0.2288
    118  O         14.0080   21.2230   57.0570 O.2   185  SER185     -0.2866
    119  CB        12.1100   23.6960   57.3850 C.3   185  SER185      0.2089
    120  OG        11.1430   24.6000   56.8790 O.3   185  SER185     -0.2183
    121  N         17.7330   25.5540   55.0220 N.3   203  VAL203     -0.1231
    122  CA        16.4010   26.0220   54.6530 C.3   203  VAL203      0.1692
    123  C         15.7280   26.4470   55.9660 C.2   203  VAL203      0.2593
    124  O         15.5960   25.6460   56.8990 O.2   203  VAL203     -0.2718
    125  CB        15.5730   24.9090   53.9660 C.3   203  VAL203      0.0266
    126  CG1       14.1830   25.4350   53.6110 C.3   203  VAL203      0.0020
    127  CG2       16.2800   24.4330   52.7100 C.3   203  VAL203      0.0020
    128  N         15.3030   27.7090   56.0260 N.am  204  SER204     -0.1938
    129  CA        14.7030   28.2470   57.2370 C.3   204  SER204      0.2055
    130  C         13.2320   28.6210   57.1330 C.2   204  SER204      0.2643
    131  O         12.3840   28.0420   57.8260 O.2   204  SER204     -0.2714
    132  CB        15.5110   29.4640   57.7070 C.3   204  SER204      0.2130
    133  OG        15.1370   29.8410   59.0250 O.3   204  SER204     -0.2179
    134  N         12.9190   29.5980   56.2940 N.am  205  TRP205     -0.1959
    135  CA        11.5320   30.0020   56.1640 C.3   205  TRP205      0.1771
    136  C         11.2780   30.8320   54.9230 C.2   205  TRP205      0.2620
    137  O         12.1930   31.1380   54.1560 O.2   205  TRP205     -0.2715
    138  CB        11.0800   30.7860   57.4090 C.3   205  TRP205      0.0590
    139  CG        11.8800   32.0440   57.7020 C.ar  205  TRP205      0.0006
    140  CD1       13.0710   32.1240   58.3730 C.ar  205  TRP205      0.0946
    141  CD2       11.5390   33.3890   57.3320 C.ar  205  TRP205      0.0152
    142  NE1       13.4920   33.4290   58.4450 N.ar  205  TRP205     -0.2442
    143  CE2       12.5730   34.2280   57.8140 C.ar  205  TRP205      0.0810
    144  CE3       10.4610   33.9680   56.6360 C.ar  205  TRP205      0.0012
    145  CZ2       12.5600   35.6210   57.6300 C.ar  205  TRP205      0.0191
    146  CZ3       10.4470   35.3560   56.4510 C.ar  205  TRP205      0.0001
    147  CH2       11.4930   36.1640   56.9460 C.ar  205  TRP205      0.0015
    148  N         10.0140   31.1990   54.7440 N.am  206  GLY206     -0.1940
    149  CA         9.6140   32.0040   53.6070 C.3   206  GLY206      0.2014
    150  C          8.1430   32.3230   53.7200 C.2   206  GLY206      0.2639
    151  O          7.3860   31.5470   54.3050 O.2   206  GLY206     -0.2714
    152  N          7.7350   33.4700   53.1850 N.am  207  GLU207     -0.1963
    153  CA         6.3300   33.8530   53.2280 C.3   207  GLU207      0.1733
    154  C          5.6390   33.1380   52.0750 C.2   207  GLU207      0.2617
    155  O          5.4460   33.6960   50.9980 O.2   207  GLU207     -0.2715
    156  CB         6.1980   35.3700   53.0950 C.3   207  GLU207      0.0429
    157  CG         6.9700   36.1120   54.1730 C.3   207  GLU207      0.1163
    158  CD         6.8900   37.6230   54.0380 C.2   207  GLU207      0.3649
    159  OE1        5.7690   38.1750   54.1430 O.co2 207  GLU207     -0.2457
    160  OE2        7.9480   38.2630   53.8310 O.co2 207  GLU207     -0.2457
    161  N          5.2760   31.8840   52.3120 N.am  208  GLY208     -0.1940
    162  CA         4.6530   31.1000   51.2690 C.3   208  GLY208      0.2014
    163  C          5.7780   30.4860   50.4600 C.2   208  GLY208      0.2639
    164  O          6.9080   30.3850   50.9400 O.2   208  GLY208     -0.2714
    165  N          5.4940   30.0880   49.2290 N.am  209  CYS209     -0.1967
    166  CA         6.5150   29.4670   48.4060 C.3   209  CYS209      0.1712
    167  C          6.3400   29.8690   46.9580 C.2   209  CYS209      0.2296
    168  O          5.2700   29.6720   46.3790 O.2   209  CYS209     -0.2864
    169  CB         6.4180   27.9480   48.5410 C.3   209  CYS209      0.0983
    170  SG         6.1500   27.4210   50.2400 S.3   209  CYS209     -0.0798
    171  N          6.0610   32.7400   45.8240 N.3   211  ARG211     -0.1245
    172  CA         5.1670   33.9010   45.7070 C.3   211  ARG211      0.1563
    173  C          5.9020   35.0580   45.0290 C.2   211  ARG211      0.2260
    174  O          7.1030   35.2530   45.2400 O.2   211  ARG211     -0.2867
    175  CB         4.7050   34.3690   47.0840 C.3   211  ARG211      0.0307
    176  CG         3.6940   33.4690   47.7560 C.3   211  ARG211      0.0489
    177  CD         3.3070   34.0220   49.1190 C.3   211  ARG211      0.2205
    178  NE         2.2570   33.2260   49.7500 N.pl3 211  ARG211     -0.0865
    179  CZ         1.6900   33.5120   50.9200 C.cat 211  ARG211      0.5346
    180  NH1        2.0710   34.5860   51.6020 N.pl3 211  ARG211      0.1354
    181  NH2        0.7390   32.7210   51.4100 N.pl3 211  ARG211      0.1354
    182  N         11.2470   35.8260   48.6310 N.3   215  TYR215     -0.1227
    183  CA        12.3860   34.9270   48.4680 C.3   215  TYR215      0.1736
    184  C         12.4450   33.8800   49.5760 C.2   215  TYR215      0.2596
    185  O         11.7600   33.9910   50.5940 O.2   215  TYR215     -0.2718
    186  CB        13.6900   35.7290   48.4590 C.3   215  TYR215      0.0548
    187  CG        13.7620   36.7510   47.3540 C.ar  215  TYR215     -0.0200
    188  CD1       13.9190   36.3590   46.0200 C.ar  215  TYR215     -0.0009
    189  CD2       13.6300   38.1130   47.6340 C.ar  215  TYR215     -0.0009
    190  CE1       13.9410   37.3030   44.9860 C.ar  215  TYR215      0.0417
    191  CE2       13.6470   39.0660   46.6130 C.ar  215  TYR215      0.0417
    192  CZ        13.8020   38.6550   45.2920 C.ar  215  TYR215      0.1957
    193  OH        13.8090   39.5910   44.2820 O.3   215  TYR215     -0.2866
    194  N         13.2530   32.8490   49.3600 N.am  216  GLY216     -0.1942
    195  CA        13.4020   31.8220   50.3690 C.3   216  GLY216      0.2014
    196  C         14.4240   32.3400   51.3640 C.2   216  GLY216      0.2639
    197  O         15.4660   32.8730   50.9640 O.2   216  GLY216     -0.2714
    198  N         14.1390   32.2130   52.6540 N.am  217  ILE217     -0.1963
    199  CA        15.0850   32.6870   53.6560 C.3   217  ILE217      0.1727
    200  C         15.8440   31.5020   54.2590 C.2   217  ILE217      0.2616
    201  O         15.2460   30.5250   54.7200 O.2   217  ILE217     -0.2715
    202  CB        14.3720   33.4900   54.7870 C.3   217  ILE217      0.0290
    203  CG1       13.3820   34.5030   54.1820 C.3   217  ILE217      0.0022
    204  CG2       15.4070   34.2190   55.6290 C.3   217  ILE217      0.0023
    205  CD1       14.0050   35.5660   53.3250 C.3   217  ILE217      0.0001
    206  N         17.1690   31.5960   54.2390 N.am  218  TYR218     -0.1974
    207  CA        18.0280   30.5340   54.7600 C.3   218  TYR218      0.1639
    208  C         18.9080   31.0150   55.8950 C.2   218  TYR218      0.2290
    209  O         19.2450   32.1970   55.9750 O.2   218  TYR218     -0.2864
    210  CB        18.9430   29.9940   53.6580 C.3   218  TYR218      0.0560
    211  CG        18.2190   29.4750   52.4450 C.ar  218  TYR218     -0.0198
    212  CD1       17.5650   30.3500   51.5730 C.ar  218  TYR218     -0.0009
    213  CD2       18.1790   28.1100   52.1640 C.ar  218  TYR218     -0.0009
    214  CE1       16.8850   29.8760   50.4480 C.ar  218  TYR218      0.0417
    215  CE2       17.5010   27.6280   51.0400 C.ar  218  TYR218      0.0417
    216  CZ        16.8580   28.5140   50.1920 C.ar  218  TYR218      0.1957
    217  OH        16.1740   28.0430   49.1050 O.3   218  TYR218     -0.2866
@<TRIPOS>BOND
     1    87    88    1
     2   193   192    1
     3   190   192   ar
     4   190   188   ar
     5   173   174    2
     6   173   172    1
     7   192   191   ar
     8    88    91    1
     9    88    89    1
    10   172   171    1
    11   172   175    1
    12   188   187   ar
    13    91    92    1
    14    90    89    2
    15   168   167    2
    16    89    95   am
    17   191   189   ar
    18   167   166    1
    19   175   176    1
    20    59    60    1
    21    92    93   ar
    22    92    94   ar
    23   187   189   ar
    24   187   186    1
    25    95    96    1
    26   176   177    1
    27    51    50    2
    28    50    49    1
    29   166   169    1
    30   166   165    1
    31    63    60    1
    32    63    64    1
    33   186   183    1
    34   183   182    1
    35   183   184    1
    36    60    61    1
    37   169   170    1
    38    96    97    1
    39    96    99    1
    40    98    97    2
    41    66    65   ar
    42   217   216    1
    43   177   178    1
    44    61    62    2
    45    97   100   am
    46   165   163   am
    47    49    52    1
    48    49    48    1
    49   194   184   am
    50   194   195    1
    51   184   185    2
    52   104   105    1
    53   104   101    1
    54    65    64    1
    55    65    67   ar
    56   178   179    2
    57    52    53    1
    58   105   170    1
    59   100   101    1
    60   216   214   ar
    61   216   215   ar
    62   195   196    1
    63   214   212   ar
    64   163   164    2
    65   163   162    1
    66   101   102    1
    67   179   181    1
    68   179   180    1
    69   197   196    2
    70   155   154    2
    71   215   213   ar
    72    53    54    1
    73   162   161    1
    74   196   198   am
    75   212   211   ar
    76    54    55    1
    77   102   103    2
    78   102   106   am
    79   154   161   am
    80   154   153    1
    81   213   211   ar
    82   211   210    1
    83   106   107    1
    84    55    56    2
    85   198   199    1
    86   127   125    1
    87   109   108    2
    88   156   153    1
    89   156   157    1
    90   152   153    1
    91   152   150   am
    92   205   203    1
    93   149   150    1
    94   149   148    1
    95   126   125    1
    96    56    57    1
    97    56    58    1
    98   199   200    1
    99   199   202    1
   100   210   207    1
   101   108   107    1
   102   150   151    2
   103   107   110    1
   104   160   158   ar
   105   125   122    1
   106   158   159   ar
   107   158   157    1
   108   110   111    1
   109   137   136    2
   110   203   202    1
   111   206   200   am
   112   206   207    1
   113   200   201    2
   114   122   121    1
   115   122   123    1
   116   148   136   am
   117   207   208    1
   118   202   204    1
   119   136   135    1
   120   115   116    1
   121   111   112    1
   122   208   209    2
   123   123   128   am
   124   123   124    2
   125   128   129    1
   126   135   134    1
   127   135   138    1
   128   134   130   am
   129   116   117    1
   130   116   119    1
   131   146   144   ar
   132   146   147   ar
   133   112   113    2
   134   112   114   am
   135   144   141   ar
   136   120   119    1
   137   117   118    2
   138   147   145   ar
   139   130   129    1
   140   130   131    2
   141   129   132    1
   142   141   139   ar
   143   141   143   ar
   144    68    69    1
   145   138   139    1
   146    71    70    2
   147   145   143   ar
   148   139   140   ar
   149   132   133    1
   150   143   142   ar
   151    75    77   ar
   152    75    73   ar
   153    77    78   ar
   154   140   142   ar
   155    70    69    1
   156    70    79   am
   157    69    72    1
   158    72    73    1
   159    73    74   ar
   160    78    76   ar
   161    81    80    1
   162    81    82    2
   163    79    80    1
   164    80    83    1
   165     9    10   ar
   166     9     7   ar
   167    10     8   ar
   168    74    76   ar
   169     7     6   ar
   170    83    84    1
   171    83    85    1
   172    45    43   ar
   173    45    46   ar
   174    43    41   ar
   175    84    86    1
   176     8     6   ar
   177    47    46    1
   178    46    44   ar
   179     6     5    1
   180    41    40    1
   181    41    42   ar
   182    40    37    1
   183    39    38    2
   184    32    31    2
   185    44    42   ar
   186    38    37    1
   187     5     2    1
   188    37    36    1
   189    31    36   am
   190    31    30    1
   191     3     4    2
   192     3     2    1
   193     1     2    1
   194    30    33    1
   195    30    29    1
   196    33    34    1
   197    33    35    1
   198    23    22    2
   199    14    13    2
   200    29    22   am
   201    22    21    1
   202    13    12    1
   203    13    20   am
   204    12    15    1
   205    12    11    1
   206    15    16    1
   207    21    20    1
   208    21    24    1
   209    16    17    1
   210    24    25    1
   211    28    26   ar
   212    26    25    1
   213    26    27   ar
   214    17    18    1
   215    18    19    1
