@<TRIPOS>MOLECULE
tmp/1z6fA00.pdb
 161 155 0 0 0
SMALL
GASTEIGER

@<TRIPOS>ATOM
      1  N         37.1920    5.5770   24.4850 N.3    40  ALA40      -0.1231
      2  CA        38.4120    5.9700   25.2140 C.3    40  ALA40       0.1694
      3  C         39.4800    6.5490   24.2670 C.2    40  ALA40       0.2592
      4  O         39.1350    7.2340   23.2930 O.2    40  ALA40      -0.2718
      5  CB        38.9550    4.7640   25.9960 C.3    40  ALA40       0.0304
      6  N         40.7730    6.2700   24.5030 N.am   41  SER41      -0.1952
      7  CA        41.8510    6.8250   23.6460 C.3    41  SER41       0.1924
      8  C         41.9000    6.3600   22.2140 C.2    41  SER41       0.2314
      9  O         42.7090    6.8500   21.4270 O.2    41  SER41      -0.2863
     10  CB        43.2380    6.6320   24.2670 C.3    41  SER41       0.2116
     11  OG        43.4590    7.6340   25.2260 O.3    41  SER41      -0.2180
     12  N         41.8220    8.9580   19.7060 N.3    44  LYS44      -0.1245
     13  CA        43.0260    9.6460   19.2890 C.3    44  LYS44       0.1561
     14  C         43.5360    9.1730   17.9200 C.2    44  LYS44       0.2260
     15  O         44.3020    9.8910   17.2800 O.2    44  LYS44      -0.2867
     16  CB        44.1240    9.4960   20.3440 C.3    44  LYS44       0.0271
     17  CG        43.8470   10.2640   21.5900 C.3    44  LYS44       0.0035
     18  CD        45.0080   10.1350   22.5380 C.3    44  LYS44       0.0206
     19  CE        44.7260   10.9020   23.8050 C.3    44  LYS44       0.1093
     20  NZ        43.7080   10.2790   24.6950 N.3    44  LYS44      -0.1314
     21  N         41.1290   20.7540   35.4950 N.3    78  PRO78      -0.2102
     22  CA        40.7940   19.5140   36.2080 C.3    78  PRO78       0.1504
     23  C         40.0950   18.4110   35.3900 C.2    78  PRO78       0.2575
     24  O         40.0470   17.2620   35.8370 O.2    78  PRO78      -0.2718
     25  CB        39.9130   19.9980   37.3570 C.3    78  PRO78       0.0282
     26  CG        40.3330   21.4100   37.5780 C.3    78  PRO78       0.0208
     27  CD        40.6590   21.9460   36.2180 C.3    78  PRO78       0.0893
     28  N         39.6210   18.7290   34.1870 N.am   79  VAL79      -0.1980
     29  CA        39.1350   17.6910   33.2720 C.3    79  VAL79       0.1595
     30  C         40.2360   16.6530   32.9870 C.2    79  VAL79       0.2287
     31  O         39.9560   15.4810   32.7180 O.2    79  VAL79      -0.2864
     32  CB        38.5860   18.3100   31.9570 C.3    79  VAL79       0.0276
     33  CG1       39.7210   18.9370   31.1050 C.3    79  VAL79       0.0022
     34  CG2       37.7760   17.2770   31.1600 C.3    79  VAL79       0.0022
     35  N         42.3220   15.4540   35.1320 N.3    81  LYS81      -0.1231
     36  CA        42.6630   14.6730   36.3270 C.3    81  LYS81       0.1693
     37  C         42.7010   13.1890   36.0370 C.2    81  LYS81       0.2593
     38  O         41.7170   12.6180   35.5640 O.2    81  LYS81      -0.2718
     39  CB        41.6790   14.9410   37.4670 C.3    81  LYS81       0.0285
     40  CG        42.0090   14.2170   38.7820 C.3    81  LYS81       0.0035
     41  CD        41.1060   14.7480   39.9150 C.3    81  LYS81       0.0206
     42  CE        39.6440   14.3480   39.7220 C.3    81  LYS81       0.1093
     43  NZ        38.7030   14.9690   40.7380 N.3    81  LYS81      -0.1314
     44  N         43.8500   12.5790   36.3040 N.am   82  GLY82      -0.1942
     45  CA        44.0280   11.1380   36.1180 C.3    82  GLY82       0.2014
     46  C         44.2190   10.7080   34.6780 C.2    82  GLY82       0.2640
     47  O         44.1860    9.5120   34.3680 O.2    82  GLY82      -0.2714
     48  N         44.4100   11.6590   33.7790 N.am   83  SER83      -0.1935
     49  CA        44.5660   11.2690   32.3810 C.3    83  SER83       0.2055
     50  C         46.0270   11.2130   31.9750 C.2    83  SER83       0.2644
     51  O         46.9000   11.6540   32.7190 O.2    83  SER83      -0.2714
     52  CB        43.7140   12.1320   31.4560 C.3    83  SER83       0.2130
     53  OG        44.2510   13.4210   31.3270 O.3    83  SER83      -0.2179
     54  N         46.2860   10.6140   30.8170 N.am   84  SER84      -0.1935
     55  CA        47.6360   10.5970   30.2620 C.3    84  SER84       0.2055
     56  C         47.9720   11.9970   29.7500 C.2    84  SER84       0.2642
     57  O         47.1790   12.5660   29.0160 O.2    84  SER84      -0.2714
     58  CB        47.7360    9.5630   29.1450 C.3    84  SER84       0.2130
     59  OG        46.4920    9.3810   28.4630 O.3    84  SER84      -0.2179
     60  N         49.1240   12.5490   30.1590 N.am   85  LEU85      -0.1977
     61  CA        49.4530   13.9880   29.9450 C.3    85  LEU85       0.1596
     62  C         50.9410   14.2920   29.7210 C.2    85  LEU85       0.2287
     63  O         51.7920   13.7990   30.4700 O.2    85  LEU85      -0.2864
     64  CB        49.0120   14.8180   31.1570 C.3    85  LEU85       0.0297
     65  CG        47.5370   14.8990   31.5510 C.3    85  LEU85       0.0022
     66  CD1       47.3830   15.4890   32.9340 C.3    85  LEU85       0.0001
     67  CD2       46.7560   15.7060   30.5430 C.3    85  LEU85       0.0001
     68  N         52.0120   17.1960   30.3680 N.3    87  PHE87      -0.1241
     69  CA        52.2020   18.3170   31.2840 C.3    87  PHE87       0.1605
     70  C         52.7000   19.5610   30.5680 C.2    87  PHE87       0.2264
     71  O         53.6620   20.2120   30.9850 O.2    87  PHE87      -0.2867
     72  CB        53.0730   17.9270   32.4870 C.3    87  PHE87       0.0534
     73  CG        52.3870   16.9700   33.4040 C.ar   87  PHE87      -0.0203
     74  CD1       52.6060   15.6020   33.2880 C.ar   87  PHE87      -0.0042
     75  CD2       51.4750   17.4330   34.3550 C.ar   87  PHE87      -0.0042
     76  CE1       51.9450   14.6980   34.1300 C.ar   87  PHE87      -0.0003
     77  CE2       50.8040   16.5380   35.1970 C.ar   87  PHE87      -0.0003
     78  CZ        51.0440   15.1720   35.0860 C.ar   87  PHE87      -0.0000
     79  N         52.0860    8.3640   23.6090 N.3   106  GLN106     -0.1245
     80  CA        51.7700    8.5350   25.0210 C.3   106  GLN106      0.1566
     81  C         50.2860    8.7930   25.2960 C.2   106  GLN106      0.2260
     82  O         49.8760    8.8040   26.4570 O.2   106  GLN106     -0.2867
     83  CB        52.6310    9.6790   25.5810 C.3   106  GLN106      0.0367
     84  CG        52.6060    9.8120   27.0940 C.3   106  GLN106      0.0905
     85  CD        53.0890   11.1590   27.5840 C.2   106  GLN106      0.2608
     86  OE1       53.9600   11.8000   26.9690 O.2   106  GLN106     -0.2717
     87  NE2       52.5130   11.6120   28.7100 N.am  106  GLN106     -0.0878
     88  N         46.5190   13.8040   26.5490 N.3   109  ASN109     -0.1240
     89  CA        45.2460   14.5030   26.2980 C.3   109  ASN109      0.1653
     90  C         45.4330   15.9880   26.0750 C.2   109  ASN109      0.2266
     91  O         44.7070   16.6000   25.2900 O.2   109  ASN109     -0.2867
     92  CB        44.2180   14.2700   27.4040 C.3   109  ASN109      0.1155
     93  CG        43.7260   12.8190   27.4390 C.2   109  ASN109      0.2627
     94  OD1       43.9540   12.0370   26.5010 O.2   109  ASN109     -0.2716
     95  ND2       43.0830   12.4430   28.5370 N.am  109  ASN109     -0.0877
     96  N         40.0550   14.1450   22.4920 N.3   148  HIS148     -0.1226
     97  CA        40.9100   13.1790   23.1900 C.3   148  HIS148      0.1752
     98  C         40.2750   11.8470   23.6230 C.2   148  HIS148      0.2597
     99  O         40.9900   10.8340   23.8220 O.2   148  HIS148     -0.2718
    100  CB        41.5720   13.8390   24.4000 C.3   148  HIS148      0.0759
    101  CG        40.7360   14.8940   25.0550 C.ar  148  HIS148      0.0818
    102  ND1       39.4020   14.7070   25.3680 N.ar  148  HIS148     -0.2268
    103  CD2       41.0430   16.1510   25.4530 C.ar  148  HIS148      0.1154
    104  CE1       38.9300   15.8040   25.9310 C.ar  148  HIS148      0.1986
    105  NE2       39.9040   16.6930   26.0020 N.ar  148  HIS148     -0.2212
    106  N         38.9610   11.7510   23.6510 N.am  149  GLY149     -0.1942
    107  CA        38.3890   10.4280   23.8760 C.3   149  GLY149      0.2014
    108  C         38.1580   10.1240   25.3400 C.2   149  GLY149      0.2639
    109  O         37.7390    9.0180   25.7010 O.2   149  GLY149     -0.2714
    110  N         38.4400   11.1010   26.1920 N.am  150  LEU150     -0.1963
    111  CA        37.9190   11.0150   27.5500 C.3   150  LEU150      0.1728
    112  C         36.4360   10.6930   27.4000 C.2   150  LEU150      0.2616
    113  O         35.7860   11.1860   26.4710 O.2   150  LEU150     -0.2715
    114  CB        38.1080   12.3310   28.2970 C.3   150  LEU150      0.0311
    115  CG        39.5200   12.6100   28.8300 C.3   150  LEU150      0.0022
    116  CD1       39.7810   14.0960   29.0860 C.3   150  LEU150      0.0001
    117  CD2       39.7800   11.8220   30.0970 C.3   150  LEU150      0.0001
    118  N         35.9040    9.8700   28.3010 N.am  151  ASP151     -0.1971
    119  CA        34.4960    9.4890   28.2460 C.3   151  ASP151      0.1709
    120  C         33.6300   10.7310   28.0490 C.2   151  ASP151      0.2293
    121  O         33.6970   11.6750   28.8320 O.2   151  ASP151     -0.2864
    122  CB        34.0830    8.7410   29.5290 C.3   151  ASP151      0.1436
    123  CG        34.7660    7.3810   29.6730 C.2   151  ASP151      0.3671
    124  OD1       35.1770    6.8050   28.6480 O.co2 151  ASP151     -0.2456
    125  OD2       34.8840    6.8760   30.8170 O.co2 151  ASP151     -0.2456
    126  N         52.9240    3.3390   24.6400 N.3   195  ARG195     -0.1245
    127  CA        52.0750    2.5480   25.5340 C.3   195  ARG195      0.1563
    128  C         51.5860    1.2430   24.8940 C.2   195  ARG195      0.2260
    129  O         50.9790    0.3990   25.5590 O.2   195  ARG195     -0.2867
    130  CB        50.8700    3.3820   25.9760 C.3   195  ARG195      0.0307
    131  CG        51.1920    4.5780   26.8640 C.3   195  ARG195      0.0489
    132  CD        49.9240    5.3550   27.1700 C.3   195  ARG195      0.2205
    133  NE        50.1350    6.3620   28.2120 N.pl3 195  ARG195     -0.0865
    134  CZ        49.8550    6.1820   29.5010 C.cat 195  ARG195      0.5346
    135  NH1       49.3330    5.0350   29.9260 N.pl3 195  ARG195      0.1354
    136  NH2       50.0900    7.1570   30.3670 N.pl3 195  ARG195      0.1354
    137  N         42.4320    2.8700   27.8260 N.3   213  HIS213     -0.1226
    138  CA        41.4950    2.4770   28.8590 C.3   213  HIS213      0.1752
    139  C         40.8430    3.7600   29.3740 C.2   213  HIS213      0.2597
    140  O         41.4780    4.8250   29.4260 O.2   213  HIS213     -0.2718
    141  CB        42.2410    1.7610   29.9860 C.3   213  HIS213      0.0759
    142  CG        41.3620    1.2690   31.0970 C.ar  213  HIS213      0.0818
    143  ND1       40.8570    2.1010   32.0730 N.ar  213  HIS213     -0.2268
    144  CD2       40.9280    0.0230   31.4050 C.ar  213  HIS213      0.1154
    145  CE1       40.1350    1.3910   32.9230 C.ar  213  HIS213      0.1986
    146  NE2       40.1550    0.1300   32.5360 N.ar  213  HIS213     -0.2212
    147  N         39.5500    3.6630   29.6630 N.am  214  THR214     -0.1939
    148  CA        38.8560    4.6140   30.5250 C.3   214  THR214      0.2028
    149  C         38.0010    3.7190   31.4000 C.2   214  THR214      0.2642
    150  O         37.9460    2.4960   31.1900 O.2   214  THR214     -0.2714
    151  CB        37.9230    5.5930   29.7700 C.3   214  THR214      0.1808
    152  OG1       36.9680    4.8590   28.9990 O.3   214  THR214     -0.2208
    153  CG2       38.6960    6.5760   28.8850 C.3   214  THR214      0.0379
    154  N         37.3380    4.3140   32.3820 N.am  215  ASP215     -0.1971
    155  CA        36.5110    3.5350   33.3000 C.3   215  ASP215      0.1709
    156  C         35.2880    2.9290   32.6150 C.2   215  ASP215      0.2293
    157  O         34.9350    1.7860   32.8940 O.2   215  ASP215     -0.2864
    158  CB        36.1220    4.3650   34.5310 C.3   215  ASP215      0.1436
    159  CG        37.2260    4.3900   35.5860 C.2   215  ASP215      0.3671
    160  OD1       37.8310    3.3200   35.8420 O.co2 215  ASP215     -0.2456
    161  OD2       37.4850    5.4700   36.1650 O.co2 215  ASP215     -0.2456
@<TRIPOS>BOND
     1    15    14    2
     2    14    13    1
     3    13    12    1
     4    13    16    1
     5    16    17    1
     6     9     8    2
     7    17    18    1
     8     8     7    1
     9    96    97    1
    10    18    19    1
    11    97    98    1
    12    97   100    1
    13     4     3    2
    14    79    80    1
    15    98   106   am
    16    98    99    2
    17     7    10    1
    18     7     6    1
    19   106   107    1
    20    19    20    1
    21   107   108    1
    22    10    11    1
    23     3     6   am
    24     3     2    1
    25   100   101    1
    26     1     2    1
    27   126   127    1
    28   128   127    1
    29   128   129    2
    30    80    81    1
    31    80    83    1
    32   101   102   ar
    33   101   103   ar
    34     2     5    1
    35    91    90    2
    36    81    82    2
    37   108   109    2
    38   108   110   am
    39   102   104   ar
    40   103   105   ar
    41   127   130    1
    42    83    84    1
    43   104   105   ar
    44   130   131    1
    45    90    89    1
    46   110   111    1
    47    89    88    1
    48    89    92    1
    49   113   112    2
    50    94    93    2
    51   131   132    1
    52    86    85    2
    53    84    85    1
    54   132   133    1
    55   112   111    1
    56   112   118   am
    57    92    93    1
    58    93    95   am
    59   111   114    1
    60    85    87   am
    61   137   138    1
    62   120   119    1
    63   120   121    2
    64   133   134    2
    65   119   118    1
    66   119   122    1
    67   114   115    1
    68    59    58    1
    69   124   123   ar
    70   115   116    1
    71   115   117    1
    72   138   139    1
    73   138   141    1
    74   153   151    1
    75   152   151    1
    76    57    56    2
    77    58    55    1
    78   139   140    2
    79   139   147   am
    80   134   135    1
    81   134   136    1
    82   122   123    1
    83   147   148    1
    84   123   125   ar
    85    62    61    1
    86    62    63    2
    87    56    60   am
    88    56    55    1
    89   151   148    1
    90    61    60    1
    91    61    64    1
    92   141   142    1
    93    55    54    1
    94    68    69    1
    95   148   149    1
    96    67    65    1
    97    70    71    2
    98    70    69    1
    99    54    50   am
   100   142   144   ar
   101   142   143   ar
   102    33    32    1
   103    64    65    1
   104    34    32    1
   105   150   149    2
   106    69    72    1
   107    53    52    1
   108   149   154   am
   109   144   146   ar
   110    52    49    1
   111    65    66    1
   112    32    29    1
   113    50    49    1
   114    50    51    2
   115   143   145   ar
   116    49    48    1
   117   154   155    1
   118    72    73    1
   119   146   145   ar
   120   156   157    2
   121   156   155    1
   122    31    30    2
   123    30    29    1
   124    29    28    1
   125    74    73   ar
   126    74    76   ar
   127   155   158    1
   128    73    75   ar
   129    48    46   am
   130    76    78   ar
   131    28    23   am
   132    75    77   ar
   133    47    46    2
   134   158   159    1
   135    46    45    1
   136    78    77   ar
   137    35    36    1
   138    23    24    2
   139    23    22    1
   140    21    22    1
   141    21    27    1
   142    38    37    2
   143   159   160   ar
   144   159   161   ar
   145    37    44   am
   146    37    36    1
   147    45    44    1
   148    22    25    1
   149    27    26    1
   150    36    39    1
   151    25    26    1
   152    39    40    1
   153    40    41    1
   154    42    41    1
   155    42    43    1
