@<TRIPOS>MOLECULE
tmp/1z6gA00.pdb
 104 100 0 0 0
SMALL
GASTEIGER

@<TRIPOS>ATOM
      1  N         90.7610   14.8900   38.4470 N.3    10  PRO10      -0.2102
      2  CA        89.6550   14.9740   37.4890 C.3    10  PRO10       0.1504
      3  C         88.5230   14.0130   37.8580 C.2    10  PRO10       0.2576
      4  O         88.7180   13.0850   38.6430 O.2    10  PRO10      -0.2718
      5  CB        90.3240   14.6250   36.1610 C.3    10  PRO10       0.0282
      6  CG        91.4610   13.7160   36.5710 C.3    10  PRO10       0.0208
      7  CD        91.9970   14.4330   37.7910 C.3    10  PRO10       0.0893
      8  N         87.3380   14.2420   37.3080 N.am   11  SER11      -0.1953
      9  CA        86.2130   13.3790   37.6110 C.3    11  SER11       0.1924
     10  C         86.5090   11.9670   37.1120 C.2    11  SER11       0.2314
     11  O         87.0940   11.7890   36.0420 O.2    11  SER11      -0.2863
     12  CB        84.9500   13.9040   36.9390 C.3    11  SER11       0.2116
     13  OG        85.0200   13.6950   35.5460 O.3    11  SER11      -0.2180
     14  N         87.6980    9.9520   43.6910 N.3    15  LYS15      -0.1245
     15  CA        87.7210   10.8860   44.8210 C.3    15  LYS15       0.1561
     16  C         86.5520   10.6070   45.7680 C.2    15  LYS15       0.2260
     17  O         86.7410   10.4470   46.9720 O.2    15  LYS15      -0.2867
     18  CB        87.6050   12.3450   44.3520 C.3    15  LYS15       0.0271
     19  CG        88.7400   12.8540   43.4930 C.3    15  LYS15       0.0035
     20  CD        88.6340   14.3780   43.2920 C.3    15  LYS15       0.0206
     21  CE        87.3350   14.7860   42.6000 C.3    15  LYS15       0.1093
     22  NZ        87.2200   14.2320   41.2190 N.3    15  LYS15      -0.1314
     23  N         85.1750   28.7020   41.3840 N.3    71  TYR71      -0.1227
     24  CA        83.9320   28.5700   40.6310 C.3    71  TYR71       0.1736
     25  C         84.2500   27.8210   39.3420 C.2    71  TYR71       0.2595
     26  O         85.3950   27.8150   38.8800 O.2    71  TYR71      -0.2718
     27  CB        83.3360   29.9470   40.3120 C.3    71  TYR71       0.0548
     28  CG        84.1020   30.7380   39.2740 C.ar   71  TYR71      -0.0200
     29  CD1       83.8860   30.5270   37.9110 C.ar   71  TYR71      -0.0009
     30  CD2       85.0450   31.6950   39.6530 C.ar   71  TYR71      -0.0009
     31  CE1       84.5880   31.2460   36.9510 C.ar   71  TYR71       0.0417
     32  CE2       85.7530   32.4240   38.6960 C.ar   71  TYR71       0.0417
     33  CZ        85.5170   32.1900   37.3490 C.ar   71  TYR71       0.1957
     34  OH        86.2080   32.8960   36.3950 O.3    71  TYR71      -0.2866
     35  N         83.2350   27.2070   38.7530 N.am   72  ASP72      -0.1960
     36  CA        83.4370   26.4370   37.5410 C.3    72  ASP72       0.1840
     37  C         82.1280   26.3870   36.7670 C.2    72  ASP72       0.2622
     38  O         81.0870   26.7980   37.2770 O.2    72  ASP72      -0.2715
     39  CB        83.8780   25.0180   37.9240 C.3    72  ASP72       0.1450
     40  CG        84.3950   24.2130   36.7400 C.2    72  ASP72       0.3671
     41  OD1       84.5120   22.9730   36.8840 O.co2  72  ASP72      -0.2456
     42  OD2       84.6920   24.8120   35.6790 O.co2  72  ASP72      -0.2456
     43  N         82.1940   25.9230   35.5240 N.am   73  ASN73      -0.1958
     44  CA        81.0130   25.7710   34.6880 C.3    73  ASN73       0.1819
     45  C         81.0940   24.3860   34.0610 C.2    73  ASN73       0.2621
     46  O         82.1230   24.0010   33.5150 O.2    73  ASN73      -0.2715
     47  CB        80.9390   26.8580   33.5970 C.3    73  ASN73       0.1195
     48  CG        82.1030   26.8040   32.6170 C.2    73  ASN73       0.2630
     49  OD1       83.2700   26.8970   33.0080 O.2    73  ASN73      -0.2716
     50  ND2       81.7880   26.6680   31.3330 N.am   73  ASN73      -0.0877
     51  N         80.0150   23.6260   34.1690 N.am   74  TYR74      -0.1974
     52  CA        79.9730   22.2830   33.6150 C.3    74  TYR74       0.1639
     53  C         78.5650   21.9820   33.1170 C.2    74  TYR74       0.2290
     54  O         77.5810   22.3280   33.7700 O.2    74  TYR74      -0.2864
     55  CB        80.3750   21.2650   34.6850 C.3    74  TYR74       0.0560
     56  CG        80.0530   19.8440   34.3100 C.ar   74  TYR74      -0.0198
     57  CD1       80.7990   19.1660   33.3470 C.ar   74  TYR74      -0.0009
     58  CD2       78.9710   19.1860   34.8880 C.ar   74  TYR74      -0.0009
     59  CE1       80.4700   17.8620   32.9670 C.ar   74  TYR74       0.0417
     60  CE2       78.6330   17.8910   34.5180 C.ar   74  TYR74       0.0417
     61  CZ        79.3840   17.2360   33.5570 C.ar   74  TYR74       0.1957
     62  OH        79.0300   15.9600   33.1810 O.3    74  TYR74      -0.2866
     63  N         88.2910   19.4690   41.5360 N.3   101  ASN101     -0.1240
     64  CA        88.9160   19.0000   40.3110 C.3   101  ASN101      0.1653
     65  C         90.1370   19.9190   40.1760 C.2   101  ASN101      0.2266
     66  O         90.3180   20.8300   40.9930 O.2   101  ASN101     -0.2867
     67  CB        87.9870   19.1200   39.0870 C.3   101  ASN101      0.1155
     68  CG        87.4310   20.5210   38.8860 C.2   101  ASN101      0.2627
     69  OD1       88.0120   21.5100   39.3300 O.2   101  ASN101     -0.2716
     70  ND2       86.3010   20.6060   38.1930 N.am  101  ASN101     -0.0877
     71  N         90.8520   22.3210   38.0900 N.3   103  ASN103     -0.1240
     72  CA        90.4900   23.7110   37.8270 C.3   103  ASN103      0.1653
     73  C         90.2230   24.4180   39.1520 C.2   103  ASN103      0.2266
     74  O         90.4850   25.6140   39.2980 O.2   103  ASN103     -0.2867
     75  CB        89.2360   23.7710   36.9560 C.3   103  ASN103      0.1155
     76  CG        88.8210   25.2010   36.6140 C.2   103  ASN103      0.2627
     77  OD1       89.5290   25.9110   35.9000 O.2   103  ASN103     -0.2716
     78  ND2       87.6700   25.6240   37.1270 N.am  103  ASN103     -0.0877
     79  N         88.5190   18.2980   28.0210 N.3   151  GLN151     -0.1231
     80  CA        88.5100   18.8880   29.3610 C.3   151  GLN151      0.1698
     81  C         89.3510   18.0530   30.3200 C.2   151  GLN151      0.2592
     82  O         90.0820   18.5930   31.1520 O.2   151  GLN151     -0.2718
     83  CB        87.0740   18.9920   29.8890 C.3   151  GLN151      0.0381
     84  CG        86.2850   20.1720   29.3250 C.3   151  GLN151      0.0905
     85  CD        84.7840   20.0300   29.5120 C.2   151  GLN151      0.2608
     86  OE1       84.2910   19.8510   30.6270 O.2   151  GLN151     -0.2717
     87  NE2       84.0470   20.1140   28.4110 N.am  151  GLN151     -0.0878
     88  N         89.2470   16.7340   30.2050 N.am  152  LEU152     -0.1980
     89  CA        90.0150   15.8440   31.0630 C.3   152  LEU152      0.1596
     90  C         91.4990   15.8720   30.7000 C.2   152  LEU152      0.2287
     91  O         92.3570   15.7120   31.5700 O.2   152  LEU152     -0.2864
     92  CB        89.4620   14.4150   30.9810 C.3   152  LEU152      0.0297
     93  CG        88.0730   14.2330   31.6100 C.3   152  LEU152      0.0022
     94  CD1       87.6150   12.7790   31.4950 C.3   152  LEU152      0.0001
     95  CD2       88.1280   14.6400   33.0730 C.3   152  LEU152      0.0001
     96  N         92.7970   18.9070   32.3780 N.3   155  GLU155     -0.1245
     97  CA        92.9560   18.6900   33.8160 C.3   155  GLU155      0.1567
     98  C         94.3200   18.0780   34.1270 C.2   155  GLU155      0.2260
     99  O         95.0580   18.5770   34.9780 O.2   155  GLU155     -0.2867
    100  CB        91.8630   17.7520   34.3500 C.3   155  GLU155      0.0388
    101  CG        90.5050   18.3990   34.5640 C.3   155  GLU155      0.1160
    102  CD        90.3200   18.9730   35.9670 C.2   155  GLU155      0.3649
    103  OE1       90.3800   18.1920   36.9480 O.co2 155  GLU155     -0.2457
    104  OE2       90.1050   20.2040   36.0880 O.co2 155  GLU155     -0.2457
@<TRIPOS>BOND
     1    79    80    1
     2    87    85   am
     3    84    85    1
     4    84    83    1
     5    80    83    1
     6    80    81    1
     7    85    86    2
     8    88    81   am
     9    88    89    1
    10    81    82    2
    11    90    89    1
    12    90    91    2
    13    92    89    1
    14    92    93    1
    15    50    48   am
    16    94    93    1
    17    93    95    1
    18    96    97    1
    19    48    49    2
    20    48    47    1
    21    59    57   ar
    22    59    61   ar
    23    53    52    1
    24    53    54    2
    25    62    61    1
    26    57    56   ar
    27    46    45    2
    28    61    60   ar
    29    47    44    1
    30    52    51    1
    31    52    55    1
    32    97    98    1
    33    97   100    1
    34    45    51   am
    35    45    44    1
    36    98    99    2
    37    56    55    1
    38    56    58   ar
    39   100   101    1
    40    60    58   ar
    41   101   102    1
    42    44    43    1
    43    43    37   am
    44    13    12    1
    45    42    40   ar
    46    77    76    2
    47   102   104   ar
    48   102   103   ar
    49    11    10    2
    50     5     6    1
    51     5     2    1
    52    34    33    1
    53     6     7    1
    54    76    75    1
    55    76    78   am
    56    40    41   ar
    57    40    39    1
    58    37    38    2
    59    37    36    1
    60    12     9    1
    61    31    33   ar
    62    31    29   ar
    63    75    72    1
    64    10     9    1
    65     8     9    1
    66     8     3   am
    67    33    32   ar
    68     2     3    1
    69     2     1    1
    70    36    39    1
    71    36    35    1
    72     7     1    1
    73    72    71    1
    74    72    73    1
    75     3     4    2
    76    29    28   ar
    77    70    68   am
    78    32    30   ar
    79    35    25   am
    80    26    25    2
    81    68    67    1
    82    68    69    2
    83    67    64    1
    84    73    74    2
    85    28    30   ar
    86    28    27    1
    87    25    24    1
    88    65    64    1
    89    65    66    2
    90    64    63    1
    91    27    24    1
    92    24    23    1
    93    22    21    1
    94    21    20    1
    95    20    19    1
    96    19    18    1
    97    14    15    1
    98    18    15    1
    99    15    16    1
   100    16    17    2
