@<TRIPOS>MOLECULE
tmp/1z6kA00.pdb
 112 102 0 0 0
SMALL
GASTEIGER

@<TRIPOS>ATOM
      1  N         17.9190   27.5460   14.2320 N.3    11  PHE11      -0.1241
      2  CA        17.5470   28.7160   15.0180 C.3    11  PHE11       0.1605
      3  C         16.1610   29.1790   14.5610 C.2    11  PHE11       0.2264
      4  O         15.8020   29.0180   13.3950 O.2    11  PHE11      -0.2867
      5  CB        18.5390   29.8560   14.7840 C.3    11  PHE11       0.0534
      6  CG        19.7300   29.8370   15.7020 C.ar   11  PHE11      -0.0203
      7  CD1       19.5710   30.0180   17.0710 C.ar   11  PHE11      -0.0042
      8  CD2       21.0120   29.6790   15.1930 C.ar   11  PHE11      -0.0042
      9  CE1       20.6770   30.0480   17.9190 C.ar   11  PHE11      -0.0003
     10  CE2       22.1150   29.7060   16.0270 C.ar   11  PHE11      -0.0003
     11  CZ        21.9510   29.8920   17.3940 C.ar   11  PHE11      -0.0000
     12  N         15.2840   31.2630   19.7770 N.3    33  ASP33      -0.1239
     13  CA        16.1590   32.3870   20.0560 C.3    33  ASP33       0.1674
     14  C         15.5220   33.5960   20.7400 C.2    33  ASP33       0.2266
     15  O         14.4900   34.1030   20.3050 O.2    33  ASP33      -0.2867
     16  CB        16.8150   32.8170   18.7400 C.3    33  ASP33       0.1410
     17  CG        18.0330   33.6830   18.9440 C.2    33  ASP33       0.3668
     18  OD1       18.6120   34.1210   17.9230 O.co2  33  ASP33      -0.2456
     19  OD2       18.4160   33.9250   20.1100 O.co2  33  ASP33      -0.2456
     20  N         17.9000   35.8960   21.7550 N.3    35  GLU35      -0.1231
     21  CA        19.0360   36.7880   21.6120 C.3    35  GLU35       0.1699
     22  C         18.9420   37.5920   20.3180 C.2    35  GLU35       0.2592
     23  O         17.8530   37.9880   19.9060 O.2    35  GLU35      -0.2718
     24  CB        20.3460   35.9970   21.6550 C.3    35  GLU35       0.0402
     25  CG        21.5330   36.8540   22.0640 C.3    35  GLU35       0.1161
     26  CD        22.7360   36.6350   21.1800 C.2    35  GLU35       0.3649
     27  OE1       22.5340   36.2360   20.0160 O.co2  35  GLU35      -0.2457
     28  OE2       23.8700   36.8760   21.6400 O.co2  35  GLU35      -0.2457
     29  N         20.0820   37.8130   19.6710 N.am   36  ASP36      -0.1960
     30  CA        20.1360   38.6050   18.4490 C.3    36  ASP36       0.1840
     31  C         19.1580   38.2080   17.3530 C.2    36  ASP36       0.2622
     32  O         19.0860   38.8650   16.3200 O.2    36  ASP36      -0.2715
     33  CB        21.5640   38.6140   17.9050 C.3    36  ASP36       0.1450
     34  CG        22.5340   39.2900   18.8530 C.2    36  ASP36       0.3671
     35  OD1       23.7460   39.3110   18.5650 O.co2  36  ASP36      -0.2456
     36  OD2       22.0840   39.8080   19.8950 O.co2  36  ASP36      -0.2456
     37  N         18.4000   37.1440   17.5720 N.am   37  GLY37      -0.1954
     38  CA        17.4340   36.7340   16.5720 C.3    37  GLY37       0.1869
     39  C         16.1050   37.4470   16.7710 C.2    37  GLY37       0.2309
     40  O         15.1650   37.2570   15.9990 O.2    37  GLY37      -0.2863
     41  N         17.8580   29.7060   23.4120 N.3    63  ARG63      -0.1245
     42  CA        19.0480   30.5310   23.5210 C.3    63  ARG63       0.1563
     43  C         18.6460   31.7620   24.2890 C.2    63  ARG63       0.2260
     44  O         17.8080   32.5370   23.8360 O.2    63  ARG63      -0.2867
     45  CB        19.6220   30.9560   22.1650 C.3    63  ARG63       0.0307
     46  CG        20.8100   31.9280   22.3640 C.3    63  ARG63       0.0489
     47  CD        21.7430   32.0580   21.1690 C.3    63  ARG63       0.2205
     48  NE        21.1490   32.8220   20.0760 N.pl3  63  ARG63      -0.0865
     49  CZ        21.8220   33.2220   19.0030 C.cat  63  ARG63       0.5346
     50  NH1       23.1070   32.9250   18.8890 N.pl3  63  ARG63       0.1354
     51  NH2       21.2130   33.9240   18.0510 N.pl3  63  ARG63       0.1354
     52  N         28.0960   28.8160   24.1620 N.3   108  LEU108     -0.1245
     53  CA        28.4270   29.2960   22.8270 C.3   108  LEU108      0.1561
     54  C         29.5770   30.2670   22.9820 C.2   108  LEU108      0.2260
     55  O         29.3890   31.4070   23.4090 O.2   108  LEU108     -0.2867
     56  CB        27.2220   29.9930   22.1780 C.3   108  LEU108      0.0270
     57  CG        27.4730   30.8830   20.9460 C.3   108  LEU108      0.0019
     58  CD1       28.2730   30.1450   19.8860 C.3   108  LEU108      0.0001
     59  CD2       26.1220   31.3510   20.3850 C.3   108  LEU108      0.0001
     60  N         32.1770   32.7420   21.7080 N.3   110  GLU110     -0.1245
     61  CA        32.2820   33.6790   20.6000 C.3   110  GLU110      0.1567
     62  C         32.9660   34.9870   21.0130 C.2   110  GLU110      0.2260
     63  O         32.5640   36.0760   20.5940 O.2   110  GLU110     -0.2867
     64  CB        30.8820   33.9500   20.0390 C.3   110  GLU110      0.0388
     65  CG        29.9120   34.5170   21.0600 C.3   110  GLU110      0.1160
     66  CD        28.4720   34.4960   20.5870 C.2   110  GLU110      0.3649
     67  OE1       28.2330   34.4410   19.3550 O.co2 110  GLU110     -0.2457
     68  OE2       27.5750   34.5400   21.4550 O.co2 110  GLU110     -0.2457
     69  N         31.0100   30.6190   17.4250 N.3   131  GLY131     -0.1225
     70  CA        30.4820   31.5180   16.4130 C.3   131  GLY131      0.1811
     71  C         31.5820   32.4670   15.9800 C.2   131  GLY131      0.2280
     72  O         32.1770   33.1550   16.8110 O.2   131  GLY131     -0.2866
     73  N         31.3840   35.1810   13.7520 N.3   133  GLU133     -0.1231
     74  CA        30.9510   36.5650   13.6530 C.3   133  GLU133      0.1699
     75  C         31.1160   37.4260   14.8960 C.2   133  GLU133      0.2592
     76  O         31.7070   38.5000   14.8170 O.2   133  GLU133     -0.2718
     77  CB        29.5060   36.6120   13.1420 C.3   133  GLU133      0.0402
     78  CG        29.3960   36.3000   11.6460 C.3   133  GLU133      0.1161
     79  CD        30.0160   34.9510   11.2490 C.2   133  GLU133      0.3649
     80  OE1       29.5160   33.8940   11.7020 O.co2 133  GLU133     -0.2457
     81  OE2       31.0050   34.9420   10.4800 O.co2 133  GLU133     -0.2457
     82  N         30.6030   36.9880   16.0410 N.am  134  ASP134     -0.1974
     83  CA        30.7700   37.7990   17.2460 C.3   134  ASP134      0.1709
     84  C         32.2260   37.7580   17.6870 C.2   134  ASP134      0.2293
     85  O         32.7290   38.7190   18.2740 O.2   134  ASP134     -0.2864
     86  CB        29.8620   37.3180   18.3790 C.3   134  ASP134      0.1436
     87  CG        28.4830   37.9470   18.3220 C.2   134  ASP134      0.3671
     88  OD1       28.3970   39.1490   18.0020 O.co2 134  ASP134     -0.2456
     89  OD2       27.4870   37.2490   18.6110 O.co2 134  ASP134     -0.2456
     90  N         27.3290   28.2910   12.5200 N.3   177  VAL177     -0.1245
     91  CA        26.2890   28.5680   11.5440 C.3   177  VAL177      0.1561
     92  C         26.8780   29.0620   10.2280 C.2   177  VAL177      0.2260
     93  O         27.7540   29.9180   10.2200 O.2   177  VAL177     -0.2867
     94  CB        25.3390   29.6650   12.0840 C.3   177  VAL177      0.0252
     95  CG1       24.4500   30.1980   10.9630 C.3   177  VAL177      0.0019
     96  CG2       24.5010   29.1130   13.2110 C.3   177  VAL177      0.0019
     97  N         26.4270   31.3410    7.6570 N.3   179  LEU179     -0.1245
     98  CA        25.6880   32.5760    7.3940 C.3   179  LEU179      0.1561
     99  C         25.1770   32.8280    5.9740 C.2   179  LEU179      0.2260
    100  O         24.1010   33.3960    5.8100 O.2   179  LEU179     -0.2867
    101  CB        26.5290   33.7710    7.8570 C.3   179  LEU179      0.0270
    102  CG        26.0120   34.5500    9.0740 C.3   179  LEU179      0.0019
    103  CD1       25.6080   33.6240   10.2000 C.3   179  LEU179      0.0001
    104  CD2       27.0960   35.5030    9.5260 C.3   179  LEU179      0.0001
    105  N         20.5090   28.3880   10.2070 N.3   205  ILE205     -0.1245
    106  CA        19.6630   29.5470   10.4850 C.3   205  ILE205      0.1561
    107  C         18.4670   29.5440    9.5410 C.2   205  ILE205      0.2260
    108  O         17.5370   30.3350    9.6930 O.2   205  ILE205     -0.2867
    109  CB        20.4290   30.8710   10.3080 C.3   205  ILE205      0.0252
    110  CG1       21.1360   30.8900    8.9490 C.3   205  ILE205      0.0019
    111  CG2       21.4090   31.0510   11.4480 C.3   205  ILE205      0.0019
    112  CD1       21.7650   32.2150    8.6030 C.3   205  ILE205      0.0001
@<TRIPOS>BOND
     1   100    99    2
     2    99    98    1
     3    98    97    1
     4    98   101    1
     5   101   102    1
     6   112   110    1
     7   110   109    1
     8   102   104    1
     9   102   103    1
    10   107   108    2
    11   107   106    1
    12   105   106    1
    13    93    92    2
    14    92    91    1
    15   109   106    1
    16   109   111    1
    17    81    79   ar
    18    95    94    1
    19    79    78    1
    20    79    80   ar
    21    91    94    1
    22    91    90    1
    23    78    77    1
    24    94    96    1
    25    77    74    1
    26     4     3    2
    27    74    73    1
    28    74    75    1
    29     1     2    1
    30     3     2    1
    31     5     2    1
    32     5     6    1
    33    76    75    2
    34    75    82   am
    35     8     6   ar
    36     8    10   ar
    37     6     7   ar
    38    71    70    1
    39    71    72    2
    40    40    39    2
    41    10    11   ar
    42    82    83    1
    43    32    31    2
    44    70    69    1
    45    38    39    1
    46    38    37    1
    47     7     9   ar
    48    83    84    1
    49    83    86    1
    50    31    37   am
    51    31    30    1
    52    11     9   ar
    53    84    85    2
    54    33    30    1
    55    33    34    1
    56    18    17   ar
    57    88    87   ar
    58    51    49    1
    59    87    86    1
    60    87    89   ar
    61    30    29    1
    62    35    34   ar
    63    16    17    1
    64    16    13    1
    65    34    36   ar
    66    50    49    1
    67    17    19   ar
    68    49    48    2
    69    67    66   ar
    70    29    22   am
    71    12    13    1
    72    58    57    1
    73    23    22    2
    74    27    26   ar
    75    64    61    1
    76    64    65    1
    77    13    14    1
    78    48    47    1
    79    15    14    2
    80    22    21    1
    81    59    57    1
    82    66    65    1
    83    66    68   ar
    84    63    62    2
    85    61    62    1
    86    61    60    1
    87    57    56    1
    88    47    46    1
    89    26    28   ar
    90    26    25    1
    91    21    24    1
    92    21    20    1
    93    24    25    1
    94    45    46    1
    95    45    42    1
    96    56    53    1
    97    53    54    1
    98    53    52    1
    99    54    55    2
   100    41    42    1
   101    42    43    1
   102    44    43    2
