@<TRIPOS>MOLECULE
tmp/1z6lB01.pdb
 163 161 0 0 0
SMALL
GASTEIGER

@<TRIPOS>ATOM
      1  N         52.5120  -58.1780  -13.0600 N.3    58  TRP58      -0.1241
      2  CA        53.4130  -57.0640  -13.3220 C.3    58  TRP58       0.1605
      3  C         54.8840  -57.3690  -13.1490 C.2    58  TRP58       0.2264
      4  O         55.2600  -58.2810  -12.4070 O.2    58  TRP58      -0.2867
      5  CB        53.1000  -55.8790  -12.4220 C.3    58  TRP58       0.0550
      6  CG        51.9920  -55.0170  -12.8990 C.ar   58  TRP58       0.0003
      7  CD1       52.0370  -54.1100  -13.9150 C.ar   58  TRP58       0.0946
      8  CD2       50.6710  -54.9580  -12.3630 C.ar   58  TRP58       0.0152
      9  NE1       50.8220  -53.4860  -14.0440 N.ar   58  TRP58      -0.2442
     10  CE2       49.9640  -53.9890  -13.1020 C.ar   58  TRP58       0.0810
     11  CE3       50.0170  -55.6310  -11.3290 C.ar   58  TRP58       0.0012
     12  CZ2       48.6340  -53.6730  -12.8430 C.ar   58  TRP58       0.0191
     13  CZ3       48.6900  -55.3210  -11.0670 C.ar   58  TRP58       0.0001
     14  CH2       48.0120  -54.3480  -11.8240 C.ar   58  TRP58       0.0015
     15  N         57.7760  -55.6170  -11.6510 N.3    60  HIS60      -0.1241
     16  CA        58.0020  -54.4480  -10.8040 C.3    60  HIS60       0.1621
     17  C         59.4670  -54.0540  -10.9570 C.2    60  HIS60       0.2264
     18  O         60.2790  -54.8410  -11.4640 O.2    60  HIS60      -0.2867
     19  CB        57.6910  -54.7610   -9.3320 C.3    60  HIS60       0.0745
     20  CG        56.2730  -55.1730   -9.0920 C.ar   60  HIS60       0.0817
     21  ND1       55.2040  -54.3370   -9.3340 N.ar   60  HIS60      -0.2268
     22  CD2       55.7440  -56.3500   -8.6740 C.ar   60  HIS60       0.1154
     23  CE1       54.0780  -54.9810   -9.0800 C.ar   60  HIS60       0.1986
     24  NE2       54.3790  -56.2040   -8.6800 N.ar   60  HIS60      -0.2212
     25  N         46.8540  -53.1280   -1.0650 N.3   161  LEU161     -0.1231
     26  CA        46.8700  -53.9390   -2.2610 C.3   161  LEU161      0.1693
     27  C         48.2890  -54.3200   -2.7000 C.2   161  LEU161      0.2592
     28  O         48.4640  -55.2790   -3.4260 O.2   161  LEU161     -0.2718
     29  CB        46.0840  -53.2530   -3.3830 C.3   161  LEU161      0.0284
     30  CG        44.5590  -53.1690   -3.1830 C.3   161  LEU161      0.0019
     31  CD1       44.0480  -54.3650   -2.3700 C.3   161  LEU161      0.0001
     32  CD2       44.2110  -51.8870   -2.4680 C.3   161  LEU161      0.0001
     33  N         49.3040  -53.5910   -2.2530 N.am  162  TRP162     -0.1962
     34  CA        50.6830  -53.9500   -2.5960 C.3   162  TRP162      0.1771
     35  C         51.0850  -55.1790   -1.7600 C.2   162  TRP162      0.2619
     36  O         51.8980  -56.0040   -2.1830 O.2   162  TRP162     -0.2715
     37  CB        51.6590  -52.8000   -2.2780 C.3   162  TRP162      0.0590
     38  CG        51.5480  -51.5730   -3.1580 C.ar  162  TRP162      0.0006
     39  CD1       50.5250  -51.2560   -4.0120 C.ar  162  TRP162      0.0946
     40  CD2       52.4610  -50.4600   -3.2020 C.ar  162  TRP162      0.0152
     41  NE1       50.7390  -50.0170   -4.5740 N.ar  162  TRP162     -0.2442
     42  CE2       51.9180  -49.5070   -4.0970 C.ar  162  TRP162      0.0810
     43  CE3       53.6820  -50.1730   -2.5670 C.ar  162  TRP162      0.0012
     44  CZ2       52.5540  -48.2830   -4.3730 C.ar  162  TRP162      0.0191
     45  CZ3       54.3120  -48.9540   -2.8400 C.ar  162  TRP162      0.0001
     46  CH2       53.7440  -48.0260   -3.7360 C.ar  162  TRP162      0.0015
     47  N         50.5170  -55.2930   -0.5650 N.am  163  HIS163     -0.1973
     48  CA        50.8360  -56.4080    0.3230 C.3   163  HIS163      0.1656
     49  C         49.7250  -57.4470    0.3610 C.2   163  HIS163      0.2291
     50  O         49.9810  -58.6350    0.5720 O.2   163  HIS163     -0.2864
     51  CB        51.0870  -55.8820    1.7340 C.3   163  HIS163      0.0771
     52  CG        52.2140  -54.9010    1.8170 C.ar  163  HIS163      0.0820
     53  ND1       53.5350  -55.2880    1.8600 N.ar  163  HIS163     -0.2267
     54  CD2       52.2160  -53.5470    1.8760 C.ar  163  HIS163      0.1154
     55  CE1       54.3010  -54.2150    1.9490 C.ar  163  HIS163      0.1986
     56  NE2       53.5260  -53.1450    1.9620 N.ar  163  HIS163     -0.2212
     57  N         57.4150  -52.2290    7.1060 N.3   174  ASP174     -0.1239
     58  CA        57.6360  -52.7730    5.7750 C.3   174  ASP174      0.1674
     59  C         56.6090  -52.2290    4.7760 C.2   174  ASP174      0.2266
     60  O         56.7200  -52.4470    3.5740 O.2   174  ASP174     -0.2867
     61  CB        57.5870  -54.3100    5.8380 C.3   174  ASP174      0.1410
     62  CG        58.0010  -54.9720    4.5260 C.2   174  ASP174      0.3668
     63  OD1       57.1000  -55.4500    3.7980 O.co2 174  ASP174     -0.2456
     64  OD2       59.2210  -55.0130    4.2220 O.co2 174  ASP174     -0.2456
     65  N         57.9070  -48.9400    0.7120 N.3   177  PHE177     -0.1241
     66  CA        59.0890  -49.5110    0.0920 C.3   177  PHE177      0.1605
     67  C         59.1480  -49.0130   -1.3490 C.2   177  PHE177      0.2264
     68  O         58.4570  -49.5210   -2.2250 O.2   177  PHE177     -0.2867
     69  CB        59.0480  -51.0510    0.1690 C.3   177  PHE177      0.0534
     70  CG        57.9650  -51.6830   -0.6600 C.ar  177  PHE177     -0.0203
     71  CD1       58.2210  -52.0890   -1.9660 C.ar  177  PHE177     -0.0042
     72  CD2       56.6870  -51.8470   -0.1440 C.ar  177  PHE177     -0.0042
     73  CE1       57.2230  -52.6450   -2.7490 C.ar  177  PHE177     -0.0003
     74  CE2       55.6780  -52.4010   -0.9150 C.ar  177  PHE177     -0.0003
     75  CZ        55.9460  -52.8030   -2.2280 C.ar  177  PHE177     -0.0000
     76  N         59.6500  -48.3420   -5.1050 N.3   179  HIS179     -0.1241
     77  CA        59.8470  -49.2740   -6.2050 C.3   179  HIS179      0.1621
     78  C         60.8860  -48.7260   -7.1640 C.2   179  HIS179      0.2264
     79  O         60.8990  -47.5350   -7.4590 O.2   179  HIS179     -0.2867
     80  CB        58.5380  -49.5190   -6.9520 C.3   179  HIS179      0.0745
     81  CG        57.4450  -50.0640   -6.0870 C.ar  179  HIS179      0.0817
     82  ND1       56.4890  -50.9380   -6.5610 N.ar  179  HIS179     -0.2268
     83  CD2       57.1350  -49.8300   -4.7880 C.ar  179  HIS179      0.1154
     84  CE1       55.6360  -51.2190   -5.5900 C.ar  179  HIS179      0.1986
     85  NE2       56.0060  -50.5600   -4.5040 N.ar  179  HIS179     -0.2212
     86  N         46.7670  -61.5760   -1.2390 N.3   280  LEU280     -0.1245
     87  CA        46.3320  -60.6650   -2.2930 C.3   280  LEU280      0.1561
     88  C         45.3950  -61.4910   -3.1780 C.2   280  LEU280      0.2260
     89  O         45.7130  -62.6260   -3.5410 O.2   280  LEU280     -0.2867
     90  CB        47.5400  -60.1850   -3.0940 C.3   280  LEU280      0.0270
     91  CG        47.2870  -59.1740   -4.2120 C.3   280  LEU280      0.0019
     92  CD1       46.8110  -57.8480   -3.6390 C.3   280  LEU280      0.0001
     93  CD2       48.5730  -58.9760   -4.9890 C.3   280  LEU280      0.0001
     94  N         41.3180  -52.0680   -5.3820 N.3   339  PHE339     -0.1241
     95  CA        42.0950  -51.5660   -6.5040 C.3   339  PHE339      0.1605
     96  C         41.6010  -52.1180   -7.8390 C.2   339  PHE339      0.2264
     97  O         41.6570  -53.3270   -8.0850 O.2   339  PHE339     -0.2867
     98  CB        43.5780  -51.8900   -6.2940 C.3   339  PHE339      0.0534
     99  CG        44.4480  -51.4490   -7.4210 C.ar  339  PHE339     -0.0203
    100  CD1       44.2320  -50.2280   -8.0410 C.ar  339  PHE339     -0.0042
    101  CD2       45.4840  -52.2520   -7.8730 C.ar  339  PHE339     -0.0042
    102  CE1       45.0380  -49.8160   -9.0950 C.ar  339  PHE339     -0.0003
    103  CE2       46.2990  -51.8420   -8.9300 C.ar  339  PHE339     -0.0003
    104  CZ        46.0750  -50.6260   -9.5390 C.ar  339  PHE339     -0.0000
    105  N         42.0010  -55.8670   -7.5170 N.3   355  LEU355     -0.1245
    106  CA        42.8340  -56.5480   -6.5280 C.3   355  LEU355      0.1561
    107  C         42.2180  -56.3550   -5.1420 C.2   355  LEU355      0.2260
    108  O         41.7140  -55.2760   -4.8350 O.2   355  LEU355     -0.2867
    109  CB        44.2700  -56.0110   -6.5550 C.3   355  LEU355      0.0270
    110  CG        45.2700  -56.6240   -7.5490 C.3   355  LEU355      0.0019
    111  CD1       44.8570  -56.3350   -9.0050 C.3   355  LEU355      0.0001
    112  CD2       46.6480  -56.0360   -7.2750 C.3   355  LEU355      0.0001
    113  N         51.6400  -64.3340   -1.3300 N.3   429  TYR429     -0.1227
    114  CA        53.1010  -64.2800   -1.2510 C.3   429  TYR429      0.1736
    115  C         53.5930  -63.7130    0.0990 C.2   429  TYR429      0.2596
    116  O         52.7830  -63.2260    0.9090 O.2   429  TYR429     -0.2718
    117  CB        53.6460  -63.4400   -2.4170 C.3   429  TYR429      0.0548
    118  CG        52.9300  -62.1210   -2.5850 C.ar  429  TYR429     -0.0200
    119  CD1       53.1250  -61.0800   -1.6820 C.ar  429  TYR429     -0.0009
    120  CD2       52.0130  -61.9320   -3.6230 C.ar  429  TYR429     -0.0009
    121  CE1       52.4220  -59.8850   -1.8040 C.ar  429  TYR429      0.0417
    122  CE2       51.3080  -60.7430   -3.7540 C.ar  429  TYR429      0.0417
    123  CZ        51.5140  -59.7250   -2.8380 C.ar  429  TYR429      0.1957
    124  OH        50.7990  -58.5580   -2.9380 O.3   429  TYR429     -0.2866
    125  N         54.9130  -63.7990    0.3250 N.am  430  SER430     -0.1938
    126  CA        55.5670  -63.3280    1.5530 C.3   430  SER430      0.2055
    127  C         55.0930  -61.9340    1.9140 C.2   430  SER430      0.2643
    128  O         55.0770  -61.0360    1.0680 O.2   430  SER430     -0.2714
    129  CB        57.0850  -63.2780    1.3730 C.3   430  SER430      0.2130
    130  OG        57.5870  -64.4490    0.7630 O.3   430  SER430     -0.2179
    131  N         54.7180  -61.7460    3.1740 N.am  431  ALA431     -0.1963
    132  CA        54.2440  -60.4470    3.6260 C.3   431  ALA431      0.1728
    133  C         54.6000  -60.2290    5.0820 C.2   431  ALA431      0.2616
    134  O         54.7460  -61.1840    5.8440 O.2   431  ALA431     -0.2715
    135  CB        52.7480  -60.3440    3.4410 C.3   431  ALA431      0.0334
    136  N         54.7250  -58.9600    5.4640 N.am  432  CYS432     -0.1968
    137  CA        55.0800  -58.6060    6.8300 C.3   432  CYS432      0.1712
    138  C         53.9620  -58.2020    7.7790 C.2   432  CYS432      0.2296
    139  O         53.0700  -57.4110    7.4620 O.2   432  CYS432     -0.2864
    140  CB        56.1570  -57.5290    6.8270 C.3   432  CYS432      0.0983
    141  SG        57.7540  -58.2100    6.4080 S.3   432  CYS432     -0.0798
    142  N         62.7120  -60.6210    5.9800 N.3   435  VAL435     -0.1245
    143  CA        63.5920  -60.3450    7.1120 C.3   435  VAL435      0.1561
    144  C         64.7570  -61.3520    7.1760 C.2   435  VAL435      0.2260
    145  O         65.6660  -61.3140    6.3450 O.2   435  VAL435     -0.2867
    146  CB        62.8050  -60.3880    8.4570 C.3   435  VAL435      0.0252
    147  CG1       63.6050  -59.6950    9.5580 C.3   435  VAL435      0.0019
    148  CG2       61.4540  -59.7310    8.2950 C.3   435  VAL435      0.0019
    149  N         62.1190  -59.7250   -3.3890 N.3   461  ALA461     -0.1231
    150  CA        61.3380  -60.5370   -2.4720 C.3   461  ALA461      0.1694
    151  C         59.8380  -60.4300   -2.7410 C.2   461  ALA461      0.2593
    152  O         59.2850  -59.3370   -2.8860 O.2   461  ALA461     -0.2718
    153  CB        61.6420  -60.1270   -1.0540 C.3   461  ALA461      0.0304
    154  N         59.1830  -61.5810   -2.8110 N.am  462  GLY462     -0.1942
    155  CA        57.7590  -61.5890   -3.0730 C.3   462  GLY462      0.2014
    156  C         57.3800  -61.3320   -4.5210 C.2   462  GLY462      0.2639
    157  O         56.1980  -61.2210   -4.8380 O.2   462  GLY462     -0.2714
    158  N         58.3650  -61.2570   -5.4090 N.am  463  CYS463     -0.1967
    159  CA        58.0750  -60.9900   -6.8070 C.3   463  CYS463      0.1712
    160  C         58.5040  -62.1010   -7.7410 C.2   463  CYS463      0.2296
    161  O         59.2760  -62.9780   -7.3700 O.2   463  CYS463     -0.2864
    162  CB        58.7510  -59.6850   -7.2380 C.3   463  CYS463      0.0983
    163  SG        58.2090  -58.2100   -6.3270 S.3   463  CYS463     -0.0798
@<TRIPOS>BOND
     1     9     7   ar
     2     9    10   ar
     3     7     6   ar
     4     2     3    1
     5     2     1    1
     6     2     5    1
     7     3     4    2
     8    10    12   ar
     9    10     8   ar
    10     6     5    1
    11     6     8   ar
    12    12    14   ar
    13     8    11   ar
    14    14    13   ar
    15    15    16    1
    16    18    17    2
    17    11    13   ar
    18    17    16    1
    19    16    19    1
    20   104   102   ar
    21   104   103   ar
    22    21    20   ar
    23    21    23   ar
    24    19    20    1
    25   102   100   ar
    26    20    22   ar
    27    23    24   ar
    28   111   110    1
    29   103   101   ar
    30    24    22   ar
    31    97    96    2
    32   100    99   ar
    33   101    99   ar
    34    96    95    1
    35   160   161    2
    36   160   159    1
    37   110   112    1
    38   110   109    1
    39   105   106    1
    40    79    78    2
    41    99    98    1
    42   162   159    1
    43   162   163    1
    44    78    77    1
    45    80    77    1
    46    80    81    1
    47   159   158    1
    48    82    81   ar
    49    82    84   ar
    50   109   106    1
    51   106   107    1
    52    95    98    1
    53    95    94    1
    54    77    76    1
    55    81    83   ar
    56    84    85   ar
    57   158   156   am
    58   107   108    2
    59    93    91    1
    60   157   156    2
    61    83    85   ar
    62    41    42   ar
    63    41    39   ar
    64   156   155    1
    65    44    42   ar
    66    44    46   ar
    67    91    92    1
    68    91    90    1
    69    42    40   ar
    70    39    38   ar
    71   122   120   ar
    72   122   123   ar
    73    46    45   ar
    74   120   118   ar
    75    89    88    2
    76    28    27    2
    77   149   150    1
    78    29    30    1
    79    29    26    1
    80    40    38   ar
    81    40    43   ar
    82    30    32    1
    83    30    31    1
    84    88    87    1
    85    38    37    1
    86    90    87    1
    87   155   154    1
    88   124   123    1
    89   152   151    2
    90    45    43   ar
    91   123   121   ar
    92   154   151   am
    93    73    75   ar
    94    73    71   ar
    95   151   150    1
    96    27    26    1
    97    27    33   am
    98    34    37    1
    99    34    33    1
   100    34    35    1
   101   118   117    1
   102   118   119   ar
   103   150   153    1
   104   117   114    1
   105    87    86    1
   106    26    25    1
   107    75    74   ar
   108    68    67    2
   109    36    35    2
   110    71    70   ar
   111   121   119   ar
   112    35    47   am
   113    67    66    1
   114   113   114    1
   115   114   115    1
   116    74    72   ar
   117    70    72   ar
   118    70    69    1
   119    47    48    1
   120    66    69    1
   121    66    65    1
   122   115   125   am
   123   115   116    2
   124    48    49    1
   125    48    51    1
   126   125   126    1
   127    49    50    2
   128   130   129    1
   129   128   127    2
   130   129   126    1
   131   126   127    1
   132    51    52    1
   133    52    53   ar
   134    52    54   ar
   135    53    55   ar
   136    54    56   ar
   137   127   131   am
   138    55    56   ar
   139   131   132    1
   140   135   132    1
   141    60    59    2
   142   132   133    1
   143    63    62   ar
   144    64    62   ar
   145    62    61    1
   146    59    58    1
   147   133   136   am
   148   133   134    2
   149   136   137    1
   150    58    61    1
   151    58    57    1
   152   142   143    1
   153   145   144    2
   154   141   140    1
   155   140   137    1
   156   137   138    1
   157   143   144    1
   158   143   146    1
   159   139   138    2
   160   148   146    1
   161   146   147    1
