@<TRIPOS>MOLECULE
tmp/1z6pA00.pdb
 190 183 0 0 0
SMALL
GASTEIGER

@<TRIPOS>ATOM
      1  N         18.7710    1.9890   46.4930 N.3    61  TRP61      -0.1227
      2  CA        19.9920    2.6550   46.8450 C.3    61  TRP61       0.1737
      3  C         20.9300    1.7930   47.6700 C.2    61  TRP61       0.2595
      4  O         22.0880    1.5640   47.3400 O.2    61  TRP61      -0.2718
      5  CB        19.7060    4.0600   47.4510 C.3    61  TRP61       0.0564
      6  CG        21.0140    4.9040   47.3280 C.ar   61  TRP61       0.0003
      7  CD1       22.2380    4.6730   46.5870 C.ar   61  TRP61       0.0946
      8  CD2       21.2140    6.1710   47.9510 C.ar   61  TRP61       0.0152
      9  NE1       23.0980    5.6960   46.7430 N.ar   61  TRP61      -0.2442
     10  CE2       22.5210    6.6200   47.6040 C.ar   61  TRP61       0.0810
     11  CE3       20.3850    6.9070   48.7660 C.ar   61  TRP61       0.0012
     12  CZ2       22.9710    7.7640   48.1620 C.ar   61  TRP61       0.0191
     13  CZ3       20.8380    8.0770   49.3050 C.ar   61  TRP61       0.0001
     14  CH2       22.1380    8.4780   49.0220 C.ar   61  TRP61       0.0015
     15  N         20.3550    1.3010   48.7890 N.am   62  ILE62      -0.1980
     16  CA        21.0150    0.4030   49.7810 C.3    62  ILE62       0.1595
     17  C         21.5250   -0.9030   49.1200 C.2    62  ILE62       0.2287
     18  O         22.6870   -1.2420   49.3310 O.2    62  ILE62      -0.2864
     19  CB        20.0900    0.1250   51.0080 C.3    62  ILE62       0.0276
     20  CG1       19.8550    1.4420   51.8210 C.3    62  ILE62       0.0022
     21  CG2       20.5700   -1.1470   51.7600 C.3    62  ILE62       0.0022
     22  CD1       18.6210    1.2870   52.7070 C.3    62  ILE62       0.0001
     23  N         24.4200   -0.5580   46.2480 N.3    65  GLN65      -0.1231
     24  CA        25.7270   -0.4490   46.9330 C.3    65  GLN65       0.1698
     25  C         26.0810   -1.6570   47.7700 C.2    65  GLN65       0.2592
     26  O         27.2350   -2.0400   47.8350 O.2    65  GLN65      -0.2718
     27  CB        25.7340    0.7120   47.9260 C.3    65  GLN65       0.0381
     28  CG        25.1820    2.0130   47.2500 C.3    65  GLN65       0.0905
     29  CD        25.9120    2.3910   45.9200 C.2    65  GLN65       0.2608
     30  OE1       27.1320    2.3490   45.8250 O.2    65  GLN65      -0.2717
     31  NE2       25.1180    2.7590   44.9170 N.am   65  GLN65      -0.0878
     32  N         25.0670   -2.2800   48.3880 N.am   66  GLN66      -0.1979
     33  CA        25.2700   -3.6460   48.8910 C.3    66  GLN66       0.1601
     34  C         25.8990   -4.6530   47.8210 C.2    66  GLN66       0.2287
     35  O         26.9850   -5.2050   47.9990 O.2    66  GLN66      -0.2864
     36  CB        23.9730   -4.1280   49.5300 C.3    66  GLN66       0.0394
     37  CG        24.2490   -5.2890   50.4980 C.3    66  GLN66       0.0908
     38  CD        23.0580   -6.1580   50.7340 C.2    66  GLN66       0.2608
     39  OE1       21.9250   -5.7780   50.5570 O.2    66  GLN66      -0.2717
     40  NE2       23.3130   -7.3180   51.2380 N.am   66  GLN66      -0.0878
     41  N         27.5210   -3.8530   44.8990 N.3    68  TYR68      -0.1227
     42  CA        28.9680   -3.5210   44.7040 C.3    68  TYR68       0.1736
     43  C         29.8370   -4.1420   45.8390 C.2    68  TYR68       0.2595
     44  O         30.8860   -4.6990   45.6020 O.2    68  TYR68      -0.2718
     45  CB        29.1800   -1.9780   44.3790 C.3    68  TYR68       0.0548
     46  CG        28.3190   -1.4210   43.2280 C.ar   68  TYR68      -0.0200
     47  CD1       27.7160   -2.2810   42.2800 C.ar   68  TYR68      -0.0009
     48  CD2       27.9760   -0.0470   43.1050 C.ar   68  TYR68      -0.0009
     49  CE1       26.7780   -1.7810   41.3740 C.ar   68  TYR68       0.0417
     50  CE2       27.1040    0.4370   42.1120 C.ar   68  TYR68       0.0417
     51  CZ        26.4760   -0.4260   41.2470 C.ar   68  TYR68       0.1957
     52  OH        25.5660    0.0220   40.2940 O.3    68  TYR68      -0.2866
     53  N         29.3480   -4.0290   47.0860 N.am   69  TYR69      -0.1962
     54  CA        30.0330   -4.5680   48.2680 C.3    69  TYR69       0.1771
     55  C         30.2730   -6.1140   48.1770 C.2    69  TYR69       0.2619
     56  O         31.3990   -6.5740   48.3980 O.2    69  TYR69      -0.2715
     57  CB        29.5390   -3.9650   49.5890 C.3    69  TYR69       0.0574
     58  CG        30.2960   -4.5810   50.7390 C.ar   69  TYR69      -0.0198
     59  CD1       31.6020   -4.2040   50.9930 C.ar   69  TYR69      -0.0009
     60  CD2       29.7360   -5.5800   51.5380 C.ar   69  TYR69      -0.0009
     61  CE1       32.3610   -4.8110   52.0040 C.ar   69  TYR69       0.0417
     62  CE2       30.4850   -6.1960   52.5580 C.ar   69  TYR69       0.0417
     63  CZ        31.8080   -5.8160   52.8180 C.ar   69  TYR69       0.1957
     64  OH        32.5080   -6.3890   53.8810 O.3    69  TYR69      -0.2866
     65  N         29.2230   -6.8250   47.7410 N.am   70  GLU70      -0.1977
     66  CA        29.2800   -8.2690   47.7230 C.3    70  GLU70       0.1602
     67  C         30.1050   -8.9100   46.5660 C.2    70  GLU70       0.2287
     68  O         30.9350   -9.8080   46.7360 O.2    70  GLU70      -0.2864
     69  CB        27.8230   -8.7030   47.6910 C.3    70  GLU70       0.0415
     70  CG        27.4190   -9.3910   49.0000 C.3    70  GLU70       0.1163
     71  CD        26.1550   -8.8390   49.6330 C.2    70  GLU70       0.3649
     72  OE1       25.0430   -9.0990   49.1400 O.co2  70  GLU70      -0.2457
     73  OE2       26.3110   -8.1610   50.6440 O.co2  70  GLU70      -0.2457
     74  N         35.7000   -0.6180   39.9860 N.3    75  ARG75      -0.1245
     75  CA        34.9030    0.5660   40.2480 C.3    75  ARG75       0.1563
     76  C         35.4940    1.6380   39.5050 C.2    75  ARG75       0.2260
     77  O         36.7230    1.7390   39.4760 O.2    75  ARG75      -0.2867
     78  CB        35.0040    0.8410   41.7350 C.3    75  ARG75       0.0307
     79  CG        34.1250   -0.2600   42.3710 C.3    75  ARG75       0.0489
     80  CD        34.4120   -0.2990   43.7760 C.3    75  ARG75       0.2205
     81  NE        34.0990   -1.6520   44.1110 N.pl3  75  ARG75      -0.0865
     82  CZ        33.2610   -1.8930   45.0750 C.cat  75  ARG75       0.5346
     83  NH1       32.2790   -1.0780   45.3310 N.pl3  75  ARG75       0.1354
     84  NH2       33.4540   -2.9590   45.7630 N.pl3  75  ARG75       0.1354
     85  N         31.0150    5.7710   40.7470 N.3   149  TYR149     -0.1241
     86  CA        30.8180    6.8070   41.7170 C.3   149  TYR149      0.1605
     87  C         31.2620    8.2090   41.1670 C.2   149  TYR149      0.2264
     88  O         32.3710    8.3770   40.7160 O.2   149  TYR149     -0.2867
     89  CB        31.7500    6.4920   42.8610 C.3   149  TYR149      0.0534
     90  CG        31.5620    5.1520   43.4910 C.ar  149  TYR149     -0.0201
     91  CD1       32.2330    4.0810   42.9760 C.ar  149  TYR149     -0.0009
     92  CD2       30.6970    5.0060   44.5680 C.ar  149  TYR149     -0.0009
     93  CE1       32.0290    2.8230   43.5100 C.ar  149  TYR149      0.0417
     94  CE2       30.4670    3.7330   45.1060 C.ar  149  TYR149      0.0417
     95  CZ        31.1830    2.6350   44.5950 C.ar  149  TYR149      0.1957
     96  OH        31.2520    1.3520   45.0780 O.3   149  TYR149     -0.2866
     97  N         22.1410   12.6490   51.6410 N.3   185  LYS185     -0.1245
     98  CA        22.3490   12.0040   52.9120 C.3   185  LYS185      0.1561
     99  C         23.7710   12.1250   53.4850 C.2   185  LYS185      0.2260
    100  O         24.7010   11.4700   53.0500 O.2   185  LYS185     -0.2867
    101  CB        21.9990   10.5030   52.7900 C.3   185  LYS185      0.0271
    102  CG        22.0400    9.7980   54.1340 C.3   185  LYS185      0.0035
    103  CD        21.1130   10.3140   55.2340 C.3   185  LYS185      0.0206
    104  CE        21.5960    9.6490   56.5440 C.3   185  LYS185      0.1093
    105  NZ        22.7710   10.2040   57.1810 N.3   185  LYS185     -0.1314
    106  N         27.0190   11.8710   55.4060 N.3   187  ARG187     -0.1245
    107  CA        27.5900   10.6080   55.7680 C.3   187  ARG187      0.1563
    108  C         28.5760   10.7270   56.8750 C.2   187  ARG187      0.2260
    109  O         29.7270   10.3930   56.6960 O.2   187  ARG187     -0.2867
    110  CB        28.1520    9.9150   54.5250 C.3   187  ARG187      0.0307
    111  CG        27.0950    9.1550   53.6390 C.3   187  ARG187      0.0489
    112  CD        26.0730    8.2610   54.4510 C.3   187  ARG187      0.2205
    113  NE        26.5980    6.9420   54.7060 N.pl3 187  ARG187     -0.0865
    114  CZ        26.5820    6.1680   53.6390 C.cat 187  ARG187      0.5346
    115  NH1       26.1840    6.6740   52.5290 N.pl3 187  ARG187      0.1354
    116  NH2       26.8670    4.9170   53.4910 N.pl3 187  ARG187      0.1354
    117  N         29.7510    9.4240   59.2670 N.3   189  GLU189     -0.1231
    118  CA        30.5360    8.3170   59.7160 C.3   189  GLU189      0.1699
    119  C         31.6230    7.8880   58.6750 C.2   189  GLU189      0.2592
    120  O         32.3690    6.9500   58.8890 O.2   189  GLU189     -0.2718
    121  CB        29.5260    7.1700   60.0280 C.3   189  GLU189      0.0402
    122  CG        28.8200    6.6550   58.7700 C.3   189  GLU189      0.1161
    123  CD        27.5010    7.3890   58.5900 C.2   189  GLU189      0.3649
    124  OE1       27.2390    8.3170   59.3480 O.co2 189  GLU189     -0.2457
    125  OE2       26.7500    7.0280   57.6950 O.co2 189  GLU189     -0.2457
    126  N         31.6740    8.6190   57.4950 N.am  190  PHE190     -0.1976
    127  CA        32.7960    8.3860   56.5410 C.3   190  PHE190      0.1639
    128  C         33.7860    9.6430   56.4140 C.2   190  PHE190      0.2290
    129  O         34.5770    9.7530   55.4850 O.2   190  PHE190     -0.2864
    130  CB        32.1820    8.0320   55.1460 C.3   190  PHE190      0.0560
    131  CG        31.9030    6.5140   54.9870 C.ar  190  PHE190     -0.0200
    132  CD1       30.5760    6.0820   54.9260 C.ar  190  PHE190     -0.0042
    133  CD2       32.9500    5.5860   54.8330 C.ar  190  PHE190     -0.0042
    134  CE1       30.2920    4.7370   54.6960 C.ar  190  PHE190     -0.0003
    135  CE2       32.6330    4.2240   54.5990 C.ar  190  PHE190     -0.0003
    136  CZ        31.3090    3.8060   54.5370 C.ar  190  PHE190     -0.0000
    137  N         26.4050   11.8300   50.2830 N.3   221  ASP221     -0.1239
    138  CA        25.9500   10.9010   49.2060 C.3   221  ASP221      0.1674
    139  C         24.5600   11.2990   48.6320 C.2   221  ASP221      0.2266
    140  O         23.6100   11.6450   49.3500 O.2   221  ASP221     -0.2867
    141  CB        25.8580    9.4960   49.7630 C.3   221  ASP221      0.1410
    142  CG        27.1910    8.9380   50.0410 C.2   221  ASP221      0.3668
    143  OD1       28.2450    9.5440   49.8060 O.co2 221  ASP221     -0.2456
    144  OD2       27.2160    7.8180   50.5510 O.co2 221  ASP221     -0.2456
    145  N         25.9570    6.3430   43.4520 N.3   234  THR234     -0.1218
    146  CA        26.2010    7.5140   44.3640 C.3   234  THR234      0.1862
    147  C         27.1240    8.5640   43.7310 C.2   234  THR234      0.2287
    148  O         28.1830    8.1960   43.2110 O.2   234  THR234     -0.2866
    149  CB        26.8870    7.0030   45.7180 C.3   234  THR234      0.1770
    150  OG1       26.1130    6.1130   46.5820 O.3   234  THR234     -0.2211
    151  CG2       27.4150    8.0640   46.7350 C.3   234  THR234      0.0375
    152  N         29.1870   11.3310   45.6180 N.3   236  ARG236     -0.1245
    153  CA        29.7390   11.7210   46.9090 C.3   236  ARG236      0.1563
    154  C         30.4510   13.0660   46.8220 C.2   236  ARG236      0.2260
    155  O         31.4390   13.1650   46.1040 O.2   236  ARG236     -0.2867
    156  CB        30.7040   10.6480   47.5390 C.3   236  ARG236      0.0307
    157  CG        31.4080   11.0740   48.8570 C.3   236  ARG236      0.0489
    158  CD        31.9890    9.8590   49.5880 C.3   236  ARG236      0.2205
    159  NE        30.8530    8.9420   49.7570 N.pl3 236  ARG236     -0.0865
    160  CZ        30.8630    7.9460   50.5890 C.cat 236  ARG236      0.5346
    161  NH1       32.0200    7.3910   50.8360 N.pl3 236  ARG236      0.1354
    162  NH2       29.7510    7.6150   51.2040 N.pl3 236  ARG236      0.1354
    163  N         40.7190    3.2830   50.7910 N.3   293  ARG293     -0.1231
    164  CA        40.0490    2.5650   51.8710 C.3   293  ARG293      0.1694
    165  C         39.1030    1.4610   51.3350 C.2   293  ARG293      0.2591
    166  O         39.1660    0.3080   51.7560 O.2   293  ARG293     -0.2718
    167  CB        39.2660    3.5640   52.7350 C.3   293  ARG293      0.0321
    168  CG        38.4520    2.8460   53.8020 C.3   293  ARG293      0.0489
    169  CD        37.3280    3.7090   54.3620 C.3   293  ARG293      0.2205
    170  NE        36.7050    4.5050   53.2980 N.pl3 293  ARG293     -0.0865
    171  CZ        35.7700    3.8870   52.5430 C.cat 293  ARG293      0.5346
    172  NH1       35.4510    2.6300   52.7900 N.pl3 293  ARG293      0.1354
    173  NH2       35.1670    4.5490   51.5420 N.pl3 293  ARG293      0.1354
    174  N         38.1830    1.8300   50.3810 N.am  294  ARG294     -0.1980
    175  CA        37.3790    0.7530   49.7420 C.3   294  ARG294      0.1597
    176  C         38.2640   -0.4000   49.3860 C.2   294  ARG294      0.2287
    177  O         38.1260   -1.5220   49.8420 O.2   294  ARG294     -0.2864
    178  CB        36.7160    1.2730   48.4410 C.3   294  ARG294      0.0334
    179  CG        35.4900    2.0930   48.7120 C.3   294  ARG294      0.0492
    180  CD        34.3480    1.8020   47.7510 C.3   294  ARG294      0.2205
    181  NE        33.3340    2.7840   48.0110 N.pl3 294  ARG294     -0.0865
    182  CZ        33.6530    4.0460   47.6740 C.cat 294  ARG294      0.5346
    183  NH1       34.8120    4.2850   47.0800 N.pl3 294  ARG294      0.1354
    184  NH2       32.8730    5.0690   48.0430 N.pl3 294  ARG294      0.1354
    185  N         38.9700   -2.6750   51.8280 N.3   297  SER297     -0.1217
    186  CA        37.9820   -3.5760   52.4490 C.3   297  SER297      0.1889
    187  C         37.2420   -4.6680   51.6120 C.2   297  SER297      0.2288
    188  O         36.3640   -5.3470   52.1590 O.2   297  SER297     -0.2866
    189  CB        36.9570   -2.6070   53.0020 C.3   297  SER297      0.2089
    190  OG        37.4400   -1.3000   53.4990 O.3   297  SER297     -0.2183
@<TRIPOS>BOND
     1    77    76    2
     2    76    75    1
     3    74    75    1
     4    75    78    1
     5    52    51    1
     6    88    87    2
     7    85    86    1
     8    87    86    1
     9    51    49   ar
    10    51    50   ar
    11    49    47   ar
    12    86    89    1
    13    78    79    1
    14    50    48   ar
    15    47    46   ar
    16    79    80    1
    17    89    90    1
    18    91    90   ar
    19    91    93   ar
    20    48    46   ar
    21   148   147    2
    22    46    45    1
    23   145   146    1
    24    90    92   ar
    25    93    95   ar
    26   147   146    1
    27    80    81    1
    28    81    82    2
    29   146   149    1
    30    45    42    1
    31    92    94   ar
    32    95    96    1
    33    95    94   ar
    34    42    41    1
    35    42    43    1
    36    31    29   am
    37    82    83    1
    38    82    84    1
    39    44    43    2
    40   152   153    1
    41   149   150    1
    42   149   151    1
    43    30    29    2
    44    43    53   am
    45    29    28    1
    46   155   154    2
    47    23    24    1
    48     1     2    1
    49    67    68    2
    50    67    66    1
    51     7     9   ar
    52     7     6   ar
    53     9    10   ar
    54   154   153    1
    55     2     5    1
    56     2     3    1
    57   153   156    1
    58    24    25    1
    59    24    27    1
    60   183   182    1
    61    53    54    1
    62    28    27    1
    63     6     5    1
    64     6     8   ar
    65     4     3    2
    66   156   157    1
    67    10     8   ar
    68    10    12   ar
    69     3    15   am
    70   182   181    2
    71   182   184    1
    72    69    66    1
    73    69    70    1
    74    66    65    1
    75    65    55   am
    76   180   181    1
    77   180   179    1
    78    25    26    2
    79    25    32   am
    80    34    35    2
    81    34    33    1
    82     8    11   ar
    83    12    14   ar
    84    55    54    1
    85    55    56    2
    86    54    57    1
    87    32    33    1
    88   178   179    1
    89   178   175    1
    90   139   138    1
    91   139   140    2
    92    11    13   ar
    93    15    16    1
    94   157   158    1
    95    33    36    1
    96    70    71    1
    97    14    13   ar
    98    17    18    2
    99    17    16    1
   100    72    71   ar
   101   138   141    1
   102   138   137    1
   103   176   175    1
   104   176   177    2
   105    36    37    1
   106   158   159    1
   107    57    58    1
   108    71    73   ar
   109   175   174    1
   110   159   160    2
   111   141   142    1
   112    16    19    1
   113   143   142   ar
   114   142   144   ar
   115   174   165   am
   116    37    38    1
   117    39    38    2
   118   160   161    1
   119   160   162    1
   120    38    40   am
   121    58    59   ar
   122    58    60   ar
   123   163   164    1
   124    59    61   ar
   125    19    21    1
   126    19    20    1
   127   165   166    2
   128   165   164    1
   129    60    62   ar
   130   173   171    1
   131   187   188    2
   132   187   186    1
   133    97    98    1
   134    20    22    1
   135   185   186    1
   136   164   167    1
   137    61    63   ar
   138   186   189    1
   139   115   114    1
   140   171   172    1
   141   171   170    2
   142    62    63   ar
   143   167   168    1
   144   101    98    1
   145   101   102    1
   146    63    64    1
   147    98    99    1
   148   189   190    1
   149   100    99    2
   150   170   169    1
   151   116   114    1
   152   111   112    1
   153   111   110    1
   154   114   113    2
   155   168   169    1
   156   102   103    1
   157   112   113    1
   158   110   107    1
   159   136   135   ar
   160   136   134   ar
   161   135   133   ar
   162   134   132   ar
   163   133   131   ar
   164   132   131   ar
   165   131   130    1
   166   130   127    1
   167   103   104    1
   168   106   107    1
   169   129   128    2
   170   107   108    1
   171   128   127    1
   172   127   126    1
   173   104   105    1
   174   109   108    2
   175   126   119   am
   176   125   123   ar
   177   123   122    1
   178   123   124   ar
   179   119   120    2
   180   119   118    1
   181   122   121    1
   182   117   118    1
   183   118   121    1
