@<TRIPOS>MOLECULE
tmp/1z6qA00.pdb
 179 173 0 0 0
SMALL
GASTEIGER

@<TRIPOS>ATOM
      1  N         18.8310    1.8780   46.3900 N.3    61  TRP61      -0.1227
      2  CA        20.1050    2.4790   46.7430 C.3    61  TRP61       0.1737
      3  C         20.9630    1.6400   47.6540 C.2    61  TRP61       0.2595
      4  O         22.1130    1.3400   47.3610 O.2    61  TRP61      -0.2718
      5  CB        19.7340    3.8890   47.2600 C.3    61  TRP61       0.0564
      6  CG        20.9880    4.7770   47.2090 C.ar   61  TRP61       0.0003
      7  CD1       22.2090    4.5440   46.5150 C.ar   61  TRP61       0.0946
      8  CD2       21.1510    6.0480   47.8730 C.ar   61  TRP61       0.0152
      9  NE1       23.0660    5.5530   46.7030 N.ar   61  TRP61      -0.2442
     10  CE2       22.4620    6.4830   47.5470 C.ar   61  TRP61       0.0810
     11  CE3       20.3490    6.8080   48.7160 C.ar   61  TRP61       0.0012
     12  CZ2       22.9530    7.6120   48.1060 C.ar   61  TRP61       0.0191
     13  CZ3       20.8540    7.9810   49.2810 C.ar   61  TRP61       0.0001
     14  CH2       22.1680    8.3550   48.9890 C.ar   61  TRP61       0.0015
     15  N         20.3300    1.2410   48.7950 N.am   62  ILE62      -0.1980
     16  CA        20.9110    0.3280   49.8110 C.3    62  ILE62       0.1595
     17  C         21.4850   -1.0370   49.2130 C.2    62  ILE62       0.2287
     18  O         22.6170   -1.4650   49.4860 O.2    62  ILE62      -0.2864
     19  CB        19.8990    0.1490   51.0020 C.3    62  ILE62       0.0276
     20  CG1       19.7190    1.4840   51.8510 C.3    62  ILE62       0.0022
     21  CG2       20.4310   -1.0460   51.8570 C.3    62  ILE62       0.0022
     22  CD1       18.5250    1.4850   52.8450 C.3    62  ILE62       0.0001
     23  N         24.3100   -0.6280   46.2000 N.3    65  GLN65      -0.1231
     24  CA        25.5920   -0.5210   46.9680 C.3    65  GLN65       0.1698
     25  C         25.9560   -1.7370   47.8290 C.2    65  GLN65       0.2592
     26  O         27.1150   -2.0590   47.9510 O.2    65  GLN65      -0.2718
     27  CB        25.6890    0.7130   47.8920 C.3    65  GLN65       0.0381
     28  CG        25.2120    2.0110   47.2160 C.3    65  GLN65       0.0905
     29  CD        25.9380    2.3180   45.8540 C.2    65  GLN65       0.2608
     30  OE1       27.1660    2.3140   45.7560 O.2    65  GLN65      -0.2717
     31  NE2       25.1020    2.5170   44.8320 N.am   65  GLN65      -0.0878
     32  N         24.9810   -2.4090   48.4370 N.am   66  GLN66      -0.1979
     33  CA        25.2680   -3.7600   48.9300 C.3    66  GLN66       0.1601
     34  C         25.8610   -4.7890   47.8580 C.2    66  GLN66       0.2287
     35  O         26.8820   -5.4100   48.0080 O.2    66  GLN66      -0.2864
     36  CB        23.9340   -4.2780   49.4790 C.3    66  GLN66       0.0394
     37  CG        24.2040   -5.6520   50.1190 C.3    66  GLN66       0.0908
     38  CD        22.9660   -6.2630   50.6030 C.2    66  GLN66       0.2608
     39  OE1       21.9200   -5.6690   50.4820 O.2    66  GLN66      -0.2717
     40  NE2       23.0660   -7.4470   51.1290 N.am   66  GLN66      -0.0878
     41  N         27.5290   -4.0100   44.8910 N.3    68  TYR68      -0.1227
     42  CA        28.9600   -3.6660   44.7020 C.3    68  TYR68       0.1736
     43  C         29.8850   -4.2100   45.8150 C.2    68  TYR68       0.2595
     44  O         30.9840   -4.6740   45.5950 O.2    68  TYR68      -0.2718
     45  CB        29.1410   -2.1440   44.5100 C.3    68  TYR68       0.0548
     46  CG        28.2720   -1.5420   43.4100 C.ar   68  TYR68      -0.0200
     47  CD1       27.7540   -2.3330   42.3620 C.ar   68  TYR68      -0.0009
     48  CD2       27.9060   -0.1850   43.3660 C.ar   68  TYR68      -0.0009
     49  CE1       26.9280   -1.7990   41.3890 C.ar   68  TYR68       0.0417
     50  CE2       27.1960    0.3810   42.2780 C.ar   68  TYR68       0.0417
     51  CZ        26.6450   -0.4540   41.2970 C.ar   68  TYR68       0.1957
     52  OH        25.7330   -0.0540   40.3380 O.3    68  TYR68      -0.2866
     53  N         29.3920   -4.1410   47.0550 N.am   69  TYR69      -0.1962
     54  CA        30.1070   -4.6220   48.2510 C.3    69  TYR69       0.1771
     55  C         30.3750   -6.1700   48.2460 C.2    69  TYR69       0.2619
     56  O         31.4820   -6.6920   48.4940 O.2    69  TYR69      -0.2715
     57  CB        29.3620   -4.1260   49.4650 C.3    69  TYR69       0.0574
     58  CG        30.0810   -4.6040   50.6670 C.ar   69  TYR69      -0.0198
     59  CD1       31.3430   -4.0960   50.9410 C.ar   69  TYR69      -0.0009
     60  CD2       29.5170   -5.5790   51.5030 C.ar   69  TYR69      -0.0009
     61  CE1       32.0530   -4.5620   52.0460 C.ar   69  TYR69       0.0417
     62  CE2       30.2150   -6.0480   52.6250 C.ar   69  TYR69       0.0417
     63  CZ        31.5070   -5.5430   52.9020 C.ar   69  TYR69       0.1957
     64  OH        32.2300   -5.9580   54.0210 O.3    69  TYR69      -0.2866
     65  N         29.2510   -6.7910   47.8610 N.am   70  GLU70      -0.1977
     66  CA        29.1700   -8.2210   47.8300 C.3    70  GLU70       0.1602
     67  C         29.9770   -8.8820   46.6760 C.2    70  GLU70       0.2287
     68  O         30.8320   -9.7350   46.8720 O.2    70  GLU70      -0.2864
     69  CB        27.6690   -8.4830   47.7900 C.3    70  GLU70       0.0415
     70  CG        27.2080   -9.0580   49.1320 C.3    70  GLU70       0.1163
     71  CD        25.7250   -8.9550   49.4890 C.2    70  GLU70       0.3649
     72  OE1       24.8370   -9.0980   48.6250 O.co2  70  GLU70      -0.2457
     73  OE2       25.5030   -8.7610   50.6770 O.co2  70  GLU70      -0.2457
     74  N         35.7220   -0.7290   39.9210 N.3    75  ARG75      -0.1245
     75  CA        34.9730    0.4960   40.2340 C.3    75  ARG75       0.1563
     76  C         35.5110    1.6040   39.4860 C.2    75  ARG75       0.2260
     77  O         36.7310    1.7950   39.4300 O.2    75  ARG75      -0.2867
     78  CB        35.0980    0.7470   41.7400 C.3    75  ARG75       0.0307
     79  CG        34.0790   -0.2400   42.3110 C.3    75  ARG75       0.0489
     80  CD        34.4930   -0.6040   43.6440 C.3    75  ARG75       0.2205
     81  NE        34.0500   -1.9900   43.8100 N.pl3  75  ARG75      -0.0865
     82  CZ        33.3870   -2.2010   44.9060 C.cat  75  ARG75       0.5346
     83  NH1       32.5120   -1.3310   45.3350 N.pl3  75  ARG75       0.1354
     84  NH2       33.6860   -3.2520   45.5630 N.pl3  75  ARG75       0.1354
     85  N         30.9100    5.8060   40.6310 N.3   149  TYR149     -0.1241
     86  CA        30.7870    6.8380   41.6800 C.3   149  TYR149      0.1605
     87  C         31.2700    8.2360   41.1890 C.2   149  TYR149      0.2264
     88  O         32.4380    8.4190   40.9120 O.2   149  TYR149     -0.2867
     89  CB        31.8240    6.5040   42.7680 C.3   149  TYR149      0.0534
     90  CG        31.6020    5.1530   43.3520 C.ar  149  TYR149     -0.0201
     91  CD1       32.2720    4.1060   42.8120 C.ar  149  TYR149     -0.0009
     92  CD2       30.7360    4.9580   44.4190 C.ar  149  TYR149     -0.0009
     93  CE1       32.1930    2.8720   43.3630 C.ar  149  TYR149      0.0417
     94  CE2       30.5350    3.6760   44.9310 C.ar  149  TYR149      0.0417
     95  CZ        31.2820    2.6310   44.4320 C.ar  149  TYR149      0.1957
     96  OH        31.1130    1.3820   45.0110 O.3   149  TYR149     -0.2866
     97  N         22.2350   12.6310   51.5730 N.3   185  LYS185     -0.1245
     98  CA        22.4200   11.9260   52.8380 C.3   185  LYS185      0.1561
     99  C         23.8530   12.0860   53.4590 C.2   185  LYS185      0.2260
    100  O         24.8740   11.5790   53.0110 O.2   185  LYS185     -0.2867
    101  CB        21.9780   10.4500   52.6710 C.3   185  LYS185      0.0271
    102  CG        22.0570    9.6540   53.9830 C.3   185  LYS185      0.0035
    103  CD        21.2610   10.2010   55.1980 C.3   185  LYS185      0.0206
    104  CE        21.5730    9.4040   56.5370 C.3   185  LYS185      0.1093
    105  NZ        22.8670    9.6890   57.1700 N.3   185  LYS185     -0.1314
    106  N         27.1100   11.5930   55.6020 N.3   187  ARG187     -0.1245
    107  CA        27.7490   10.3810   55.8470 C.3   187  ARG187      0.1563
    108  C         28.8070   10.5820   56.8800 C.2   187  ARG187      0.2260
    109  O         29.9850   10.3790   56.5850 O.2   187  ARG187     -0.2867
    110  CB        28.2620    9.7390   54.5090 C.3   187  ARG187      0.0307
    111  CG        27.1220    9.3630   53.5180 C.3   187  ARG187      0.0489
    112  CD        26.0220    8.4130   54.0940 C.3   187  ARG187      0.2205
    113  NE        26.3970    7.0760   53.6870 N.pl3 187  ARG187     -0.0865
    114  CZ        26.8590    6.1110   54.4350 C.cat 187  ARG187      0.5346
    115  NH1       26.8780    6.2820   55.6520 N.pl3 187  ARG187      0.1354
    116  NH2       27.2950    4.9670   54.0380 N.pl3 187  ARG187      0.1354
    117  N         30.2560    8.9400   59.2160 N.3   189  GLU189     -0.1231
    118  CA        30.9000    7.6260   59.3660 C.3   189  GLU189      0.1699
    119  C         32.1560    7.6310   58.4010 C.2   189  GLU189      0.2592
    120  O         33.2360    7.1750   58.7070 O.2   189  GLU189     -0.2718
    121  CB        29.7710    6.4690   59.3250 C.3   189  GLU189      0.0402
    122  CG        28.5750    6.3290   58.2640 C.3   189  GLU189      0.1161
    123  CD        27.4170    7.4000   58.4020 C.2   189  GLU189      0.3649
    124  OE1       27.6090    8.1410   59.3610 O.co2 189  GLU189     -0.2457
    125  OE2       26.3450    7.5160   57.6130 O.co2 189  GLU189     -0.2457
    126  N         32.0260    8.2940   57.2670 N.am  190  PHE190     -0.1976
    127  CA        33.1280    8.4070   56.2870 C.3   190  PHE190      0.1639
    128  C         33.8170    9.8090   56.1750 C.2   190  PHE190      0.2290
    129  O         34.4480   10.0750   55.1530 O.2   190  PHE190     -0.2864
    130  CB        32.5230    8.0480   54.8490 C.3   190  PHE190      0.0560
    131  CG        32.1670    6.6030   54.7770 C.ar  190  PHE190     -0.0200
    132  CD1       30.8510    6.2060   54.7700 C.ar  190  PHE190     -0.0042
    133  CD2       33.2050    5.6850   54.8130 C.ar  190  PHE190     -0.0042
    134  CE1       30.6550    4.8180   54.8000 C.ar  190  PHE190     -0.0003
    135  CE2       33.0020    4.3230   54.8080 C.ar  190  PHE190     -0.0003
    136  CZ        31.7010    3.8930   54.7920 C.ar  190  PHE190     -0.0000
    137  N         26.2820   11.7220   50.3640 N.3   221  ASP221     -0.1239
    138  CA        25.8570   10.8850   49.2850 C.3   221  ASP221      0.1674
    139  C         24.4900   11.3230   48.7010 C.2   221  ASP221      0.2266
    140  O         23.5120   11.6400   49.3860 O.2   221  ASP221     -0.2867
    141  CB        25.8040    9.4660   49.8050 C.3   221  ASP221      0.1410
    142  CG        27.1380    8.8980   50.0450 C.2   221  ASP221      0.3668
    143  OD1       28.1420    9.6080   49.8690 O.co2 221  ASP221     -0.2456
    144  OD2       27.2110    7.7530   50.4610 O.co2 221  ASP221     -0.2456
    145  N         25.7310    6.3170   43.5220 N.3   234  THR234     -0.1218
    146  CA        25.9370    7.5050   44.3960 C.3   234  THR234      0.1862
    147  C         26.8350    8.5680   43.7260 C.2   234  THR234      0.2287
    148  O         27.8490    8.2310   43.0800 O.2   234  THR234     -0.2866
    149  CB        26.6960    6.9590   45.7130 C.3   234  THR234      0.1770
    150  OG1       25.8200    6.0070   46.4340 O.3   234  THR234     -0.2211
    151  CG2       27.1350    8.0660   46.7390 C.3   234  THR234      0.0375
    152  N         40.7660    3.4320   50.7870 N.3   293  ARG293     -0.1231
    153  CA        40.0300    2.7620   51.8210 C.3   293  ARG293      0.1694
    154  C         39.0440    1.7160   51.3280 C.2   293  ARG293      0.2591
    155  O         39.1700    0.5870   51.7890 O.2   293  ARG293     -0.2718
    156  CB        39.2940    3.7590   52.6340 C.3   293  ARG293      0.0321
    157  CG        38.4620    3.0770   53.7380 C.3   293  ARG293      0.0489
    158  CD        37.4030    3.9630   54.3230 C.3   293  ARG293      0.2205
    159  NE        36.5530    4.3430   53.2170 N.pl3 293  ARG293     -0.0865
    160  CZ        35.6790    3.5270   52.6300 C.cat 293  ARG293      0.5346
    161  NH1       35.4560    2.3110   53.0460 N.pl3 293  ARG293      0.1354
    162  NH2       35.0340    3.9240   51.5950 N.pl3 293  ARG293      0.1354
    163  N         38.0500    2.0460   50.4350 N.am  294  ARG294     -0.1980
    164  CA        37.3300    0.9210   49.7650 C.3   294  ARG294      0.1597
    165  C         38.2300   -0.2180   49.2280 C.2   294  ARG294      0.2287
    166  O         37.8830   -1.3620   49.3650 O.2   294  ARG294     -0.2864
    167  CB        36.6440    1.2430   48.4130 C.3   294  ARG294      0.0334
    168  CG        35.3910    1.9450   48.5550 C.3   294  ARG294      0.0492
    169  CD        34.3290    1.6760   47.5140 C.3   294  ARG294      0.2205
    170  NE        33.4390    2.7960   47.7500 N.pl3 294  ARG294     -0.0865
    171  CZ        33.7900    4.0670   47.6190 C.cat 294  ARG294      0.5346
    172  NH1       34.7470    4.4270   46.8350 N.pl3 294  ARG294      0.1354
    173  NH2       33.1770    4.9570   48.3070 N.pl3 294  ARG294      0.1354
    174  N         38.9660   -2.5010   51.8000 N.3   297  SER297     -0.1217
    175  CA        37.9740   -3.3360   52.4610 C.3   297  SER297      0.1889
    176  C         37.2210   -4.4040   51.6380 C.2   297  SER297      0.2288
    177  O         36.1460   -4.8140   52.0680 O.2   297  SER297     -0.2866
    178  CB        37.0400   -2.2390   52.9560 C.3   297  SER297      0.2089
    179  OG        37.7820   -1.1310   53.6110 O.3   297  SER297     -0.2183
@<TRIPOS>BOND
     1    77    76    2
     2    76    75    1
     3    74    75    1
     4    75    78    1
     5    52    51    1
     6    85    86    1
     7    88    87    2
     8    87    86    1
     9    51    49   ar
    10    51    50   ar
    11    49    47   ar
    12    86    89    1
    13    78    79    1
    14    50    48   ar
    15    79    80    1
    16    47    46   ar
    17    89    90    1
    18    91    90   ar
    19    91    93   ar
    20   148   147    2
    21    90    92   ar
    22    93    95   ar
    23    48    46   ar
    24    46    45    1
    25   145   146    1
    26    80    81    1
    27   147   146    1
    28    81    82    2
    29   146   149    1
    30    92    94   ar
    31    95    94   ar
    32    95    96    1
    33    45    42    1
    34    42    41    1
    35    42    43    1
    36    31    29   am
    37    82    83    1
    38    82    84    1
    39    44    43    2
    40   149   150    1
    41   149   151    1
    42    30    29    2
    43    43    53   am
    44    29    28    1
    45    23    24    1
    46     1     2    1
    47     7     9   ar
    48     7     6   ar
    49    67    68    2
    50    67    66    1
    51     9    10   ar
    52     2     5    1
    53     2     3    1
    54   172   171    1
    55    24    25    1
    56    24    27    1
    57    53    54    1
    58     6     5    1
    59     6     8   ar
    60    28    27    1
    61     4     3    2
    62   169   170    1
    63   169   168    1
    64    10     8   ar
    65    10    12   ar
    66   171   170    2
    67   171   173    1
    68     3    15   am
    69    69    66    1
    70    69    70    1
    71    25    26    2
    72    25    32   am
    73    66    65    1
    74    34    35    2
    75    34    33    1
    76    65    55   am
    77     8    11   ar
    78    12    14   ar
    79    55    54    1
    80    55    56    2
    81    54    57    1
    82   167   168    1
    83   167   164    1
    84    32    33    1
    85    72    71   ar
    86   139   138    1
    87   139   140    2
    88    11    13   ar
    89    15    16    1
    90    33    36    1
    91    14    13   ar
    92    70    71    1
    93    17    18    2
    94    17    16    1
    95   165   166    2
    96   165   164    1
    97   138   141    1
    98   138   137    1
    99    57    58    1
   100    36    37    1
   101    71    73   ar
   102   164   163    1
   103   141   142    1
   104    16    19    1
   105   143   142   ar
   106   142   144   ar
   107    37    38    1
   108   163   154   am
   109    39    38    2
   110    38    40   am
   111    58    59   ar
   112    58    60   ar
   113   152   153    1
   114    59    61   ar
   115    19    20    1
   116    19    21    1
   117   154   155    2
   118   154   153    1
   119    60    62   ar
   120    97    98    1
   121   162   160    1
   122   176   177    2
   123   176   175    1
   124   174   175    1
   125   153   156    1
   126    20    22    1
   127    61    63   ar
   128   175   178    1
   129    62    63   ar
   130   160   161    1
   131   160   159    2
   132   156   157    1
   133   101    98    1
   134   101   102    1
   135    98    99    1
   136    63    64    1
   137   178   179    1
   138   100    99    2
   139   159   158    1
   140   111   112    1
   141   111   110    1
   142   113   112    1
   143   113   114    2
   144   157   158    1
   145   102   103    1
   146   116   114    1
   147   114   115    1
   148   110   107    1
   149   132   131   ar
   150   132   134   ar
   151   131   133   ar
   152   131   130    1
   153   136   134   ar
   154   136   135   ar
   155   135   133   ar
   156   130   127    1
   157   129   128    2
   158   103   104    1
   159   106   107    1
   160   107   108    1
   161   128   127    1
   162   127   126    1
   163   104   105    1
   164   109   108    2
   165   126   119   am
   166   125   123   ar
   167   122   123    1
   168   122   121    1
   169   119   120    2
   170   119   118    1
   171   123   124   ar
   172   117   118    1
   173   121   118    1
