@<TRIPOS>MOLECULE
tmp/1z6tC00.pdb
 174 165 0 0 0
SMALL
GASTEIGER

@<TRIPOS>ATOM
      1  N         41.8020  103.9830   49.6450 N.3   123  PRO123     -0.2116
      2  CA        41.6490  105.2680   50.3350 C.3   123  PRO123      0.1372
      3  C         42.9710  106.0260   50.4750 C.2   123  PRO123      0.2244
      4  O         44.0410  105.4240   50.4630 O.2   123  PRO123     -0.2868
      5  CB        41.0950  104.8760   51.7240 C.3   123  PRO123      0.0268
      6  CG        41.2520  103.4110   51.8520 C.3   123  PRO123      0.0207
      7  CD        41.3110  102.8500   50.4590 C.3   123  PRO123      0.0892
      8  N         44.5440  107.1640   52.9200 N.3   125  VAL125     -0.1231
      9  CA        45.3300  106.3890   53.8930 C.3   125  VAL125      0.1692
     10  C         44.6040  105.0460   54.0620 C.2   125  VAL125      0.2592
     11  O         43.3900  105.0030   54.2120 O.2   125  VAL125     -0.2718
     12  CB        45.5080  107.1440   55.2440 C.3   125  VAL125      0.0266
     13  CG1       45.9740  106.2380   56.3800 C.3   125  VAL125      0.0020
     14  CG2       46.4860  108.3010   55.0820 C.3   125  VAL125      0.0020
     15  N         45.3730  103.9620   54.0350 N.am  126  PHE126     -0.1962
     16  CA        44.8530  102.5930   54.0040 C.3   126  PHE126      0.1771
     17  C         45.5600  101.7190   55.0260 C.2   126  PHE126      0.2619
     18  O         46.7830  101.6850   55.0750 O.2   126  PHE126     -0.2715
     19  CB        45.0610  101.9940   52.6170 C.3   126  PHE126      0.0574
     20  CG        44.8100  100.5200   52.5560 C.ar  126  PHE126     -0.0200
     21  CD1       43.5170  100.0310   52.4980 C.ar  126  PHE126     -0.0042
     22  CD2       45.8690   99.6160   52.5730 C.ar  126  PHE126     -0.0042
     23  CE1       43.2640   98.6430   52.4530 C.ar  126  PHE126     -0.0003
     24  CE2       45.6250   98.2390   52.5340 C.ar  126  PHE126     -0.0003
     25  CZ        44.3160   97.7600   52.4770 C.ar  126  PHE126     -0.0000
     26  N         44.8020  101.0110   55.8500 N.am  127  VAL127     -0.1977
     27  CA        45.3910   99.9900   56.7070 C.3   127  VAL127      0.1596
     28  C         44.8710   98.5930   56.3140 C.2   127  VAL127      0.2287
     29  O         43.7210   98.4190   55.9540 O.2   127  VAL127     -0.2864
     30  CB        45.1410  100.2600   58.2550 C.3   127  VAL127      0.0276
     31  CG1       45.7670  101.5800   58.6890 C.3   127  VAL127      0.0022
     32  CG2       43.6540  100.2300   58.6020 C.3   127  VAL127      0.0022
     33  N         43.5310   94.7640   56.6060 N.3   129  ARG129     -0.1245
     34  CA        42.5480   94.0990   57.4020 C.3   129  ARG129      0.1563
     35  C         42.5940   92.6910   56.8980 C.2   129  ARG129      0.2260
     36  O         41.6590   92.2450   56.2470 O.2   129  ARG129     -0.2867
     37  CB        41.1520   94.7220   57.2020 C.3   129  ARG129      0.0307
     38  CG        41.0570   96.1640   57.6840 C.3   129  ARG129      0.0489
     39  CD        39.6570   96.7360   57.5440 C.3   129  ARG129      0.2205
     40  NE        38.7940   96.2860   58.6340 N.pl3 129  ARG129     -0.0865
     41  CZ        37.4990   96.5760   58.7510 C.cat 129  ARG129      0.5346
     42  NH1       36.8830   97.3180   57.8550 N.pl3 129  ARG129      0.1354
     43  NH2       36.8230   96.1400   59.7910 N.pl3 129  ARG129      0.1354
     44  N         26.6620  100.5200   57.7450 N.3   156  ALA156     -0.1231
     45  CA        27.0980  101.5780   56.8770 C.3   156  ALA156      0.1694
     46  C         28.3580  102.2390   57.4340 C.2   156  ALA156      0.2593
     47  O         28.4390  102.5320   58.6310 O.2   156  ALA156     -0.2718
     48  CB        25.9870  102.6040   56.7020 C.3   156  ALA156      0.0304
     49  N         29.3420  102.4300   56.5680 N.am  157  GLY157     -0.1942
     50  CA        30.6300  103.0230   56.9490 C.3   157  GLY157      0.2014
     51  C         31.6550  102.1480   57.6370 C.2   157  GLY157      0.2639
     52  O         32.7050  102.6550   58.0300 O.2   157  GLY157     -0.2714
     53  N         31.3820  100.8490   57.7970 N.am  158  CYS158     -0.1953
     54  CA        32.3210   99.9500   58.5100 C.3   158  CYS158      0.1843
     55  C         33.5230   99.5100   57.6250 C.2   158  CYS158      0.2626
     56  O         34.4510   98.8900   58.1220 O.2   158  CYS158     -0.2714
     57  CB        31.5880   98.7320   59.1130 C.3   158  CYS158      0.0997
     58  SG        31.0210   97.5040   57.9010 S.3   158  CYS158     -0.0797
     59  N         33.5010   99.8490   56.3360 N.am  159  GLY159     -0.1940
     60  CA        34.6160   99.5660   55.4280 C.3   159  GLY159      0.2014
     61  C         34.4140   98.4160   54.4560 C.2   159  GLY159      0.2639
     62  O         35.3790   97.8490   53.9970 O.2   159  GLY159     -0.2714
     63  N         33.1740   98.0860   54.1190 N.am  160  LYS160     -0.1963
     64  CA        32.8910   96.9320   53.2430 C.3   160  LYS160      0.1728
     65  C         33.3140   97.1540   51.7860 C.2   160  LYS160      0.2617
     66  O         33.7550   96.2220   51.1080 O.2   160  LYS160     -0.2715
     67  CB        31.4010   96.5900   53.2340 C.3   160  LYS160      0.0311
     68  CG        30.7560   96.3730   54.5740 C.3   160  LYS160      0.0038
     69  CD        29.2740   96.0350   54.4070 C.3   160  LYS160      0.0206
     70  CE        28.4210   97.2060   53.8370 C.3   160  LYS160      0.1093
     71  NZ        28.2400   98.3300   54.8290 N.3   160  LYS160     -0.1314
     72  N         33.1550   98.3610   51.2750 N.am  161  SER161     -0.1936
     73  CA        33.5140   98.5760   49.8690 C.3   161  SER161      0.2055
     74  C         35.0480   98.6140   49.6660 C.2   161  SER161      0.2642
     75  O         35.5590   98.2020   48.6360 O.2   161  SER161     -0.2714
     76  CB        32.8600   99.8330   49.3370 C.3   161  SER161      0.2130
     77  OG        33.7870  100.8520   49.2210 O.3   161  SER161     -0.2179
     78  N         35.7640   99.1350   50.6530 N.am  162  VAL162     -0.1977
     79  CA        37.2060   99.1040   50.6510 C.3   162  VAL162      0.1596
     80  C         37.6820   97.6670   50.7450 C.2   162  VAL162      0.2287
     81  O         38.6460   97.3420   50.1110 O.2   162  VAL162     -0.2864
     82  CB        37.8180   99.9470   51.8320 C.3   162  VAL162      0.0276
     83  CG1       39.2870   99.7350   51.9290 C.3   162  VAL162      0.0022
     84  CG2       37.5410  101.4180   51.6320 C.3   162  VAL162      0.0022
     85  N         28.1930   97.0520   44.8200 N.3   243  ASP243     -0.1239
     86  CA        28.4120   97.8060   46.0520 C.3   243  ASP243      0.1674
     87  C         27.1170   98.3780   46.6390 C.2   243  ASP243      0.2266
     88  O         26.4410   99.1800   45.9890 O.2   243  ASP243     -0.2867
     89  CB        29.4240   98.9380   45.7950 C.3   243  ASP243      0.1410
     90  CG        29.8600   99.6280   47.0750 C.2   243  ASP243      0.3668
     91  OD1       30.1030   98.9350   48.0990 O.co2 243  ASP243     -0.2456
     92  OD2       29.9450  100.8700   47.0580 O.co2 243  ASP243     -0.2456
     93  N         28.2560   93.8940   48.5480 N.3   263  THR263     -0.1218
     94  CA        28.2140   94.4560   49.9010 C.3   263  THR263      0.1862
     95  C         26.7700   94.9190   50.2210 C.2   263  THR263      0.2287
     96  O         26.0260   95.3630   49.3390 O.2   263  THR263     -0.2866
     97  CB        29.1710   95.6550   50.0720 C.3   263  THR263      0.1770
     98  OG1       28.6870   96.7500   49.2900 O.3   263  THR263     -0.2211
     99  CG2       30.6210   95.3050   49.6650 C.3   263  THR263      0.0375
    100  N         24.1350   96.2270   53.9040 N.3   265  ARG265     -0.1245
    101  CA        23.8030   96.3710   55.3240 C.3   265  ARG265      0.1563
    102  C         22.8610   95.2690   55.7790 C.2   265  ARG265      0.2260
    103  O         22.7460   95.0260   56.9730 O.2   265  ARG265     -0.2867
    104  CB        23.1310   97.7170   55.5850 C.3   265  ARG265      0.0307
    105  CG        23.9120   98.9470   55.0720 C.3   265  ARG265      0.0489
    106  CD        22.9950  100.2070   54.9610 C.3   265  ARG265      0.2205
    107  NE        23.6660  101.2540   54.1820 N.pl3 265  ARG265     -0.0865
    108  CZ        23.6240  102.5640   54.4320 C.cat 265  ARG265      0.5346
    109  NH1       22.9400  103.0440   55.4690 N.pl3 265  ARG265      0.1354
    110  NH2       24.3060  103.4080   53.6450 N.pl3 265  ARG265      0.1354
    111  N         35.9740   99.0980   63.6110 N.3   286  LEU286     -0.1245
    112  CA        37.4050   98.8530   63.4890 C.3   286  LEU286      0.1561
    113  C         37.9480   98.7650   64.9160 C.2   286  LEU286      0.2260
    114  O         37.4300   99.4190   65.8370 O.2   286  LEU286     -0.2867
    115  CB        38.1120  100.0300   62.8190 C.3   286  LEU286      0.0270
    116  CG        38.7510  100.0000   61.4490 C.3   286  LEU286      0.0019
    117  CD1       39.6910  101.2240   61.3760 C.3   286  LEU286      0.0001
    118  CD2       39.4880   98.7100   61.1680 C.3   286  LEU286      0.0001
    119  N         45.6420  104.1000   61.5170 N.3   294  ILE294     -0.1245
    120  CA        45.1640  105.0940   60.5590 C.3   294  ILE294      0.1561
    121  C         45.6810  106.4630   60.9580 C.2   294  ILE294      0.2260
    122  O         46.2830  107.1660   60.1500 O.2   294  ILE294     -0.2867
    123  CB        43.6190  105.1390   60.4810 C.3   294  ILE294      0.0252
    124  CG1       43.0720  103.8830   59.8050 C.3   294  ILE294      0.0019
    125  CG2       43.1500  106.3710   59.7270 C.3   294  ILE294      0.0019
    126  CD1       41.5100  103.7800   59.8290 C.3   294  ILE294      0.0001
    127  N         35.8590  103.9100   60.5420 N.3   321  PRO321     -0.2102
    128  CA        37.0200  104.3140   59.7450 C.3   321  PRO321      0.1504
    129  C         36.8730  105.6230   58.9470 C.2   321  PRO321      0.2575
    130  O         37.8870  106.2580   58.6350 O.2   321  PRO321     -0.2718
    131  CB        37.2290  103.1390   58.7720 C.3   321  PRO321      0.0282
    132  CG        36.0080  102.2860   58.8430 C.3   321  PRO321      0.0208
    133  CD        35.2700  102.6230   60.0980 C.3   321  PRO321      0.0893
    134  N         35.6470  106.0020   58.5740 N.am  322  LEU322     -0.1980
    135  CA        35.4230  107.2950   57.9570 C.3   322  LEU322      0.1596
    136  C         35.6900  108.4400   58.9360 C.2   322  LEU322      0.2287
    137  O         36.3570  109.4150   58.5880 O.2   322  LEU322     -0.2864
    138  CB        34.0070  107.3920   57.3880 C.3   322  LEU322      0.0297
    139  CG        33.6000  108.6900   56.6390 C.3   322  LEU322      0.0022
    140  CD1       34.5860  109.1400   55.5370 C.3   322  LEU322      0.0001
    141  CD2       32.2080  108.5720   56.0290 C.3   322  LEU322      0.0001
    142  N         39.3280  108.7090   59.7830 N.3   325  SER325     -0.1217
    143  CA        40.0090  109.3360   58.6410 C.3   325  SER325      0.1889
    144  C         39.8290  110.8420   58.5840 C.2   325  SER325      0.2288
    145  O         40.7770  111.5690   58.2670 O.2   325  SER325     -0.2866
    146  CB        39.5710  108.7060   57.3140 C.3   325  SER325      0.2089
    147  OG        40.1070  107.3950   57.1670 O.3   325  SER325     -0.2183
    148  N         39.4320  113.5750   53.2170 N.3   422  SER422     -0.1217
    149  CA        38.3750  112.5320   53.2860 C.3   422  SER422      0.1889
    150  C         36.9520  113.0950   53.3160 C.2   422  SER422      0.2288
    151  O         36.0440  112.4380   53.8030 O.2   422  SER422     -0.2866
    152  CB        38.6010  111.5480   54.4460 C.3   422  SER422      0.2089
    153  OG        39.7280  110.6960   54.2090 O.3   422  SER422     -0.2183
    154  N         35.3940  111.8380   47.5360 N.3   425  PHE425     -0.1241
    155  CA        36.0590  110.7330   46.9040 C.3   425  PHE425      0.1605
    156  C         36.1080  110.9480   45.4100 C.2   425  PHE425      0.2264
    157  O         35.2410  111.6060   44.8250 O.2   425  PHE425     -0.2867
    158  CB        35.3310  109.4420   47.2950 C.3   425  PHE425      0.0534
    159  CG        35.2940  109.2500   48.7820 C.ar  425  PHE425     -0.0203
    160  CD1       34.3690  109.9370   49.5610 C.ar  425  PHE425     -0.0042
    161  CD2       36.2710  108.5230   49.4130 C.ar  425  PHE425     -0.0042
    162  CE1       34.3710  109.8260   50.9360 C.ar  425  PHE425     -0.0003
    163  CE2       36.2890  108.4370   50.8030 C.ar  425  PHE425     -0.0003
    164  CZ        35.3330  109.0780   51.5600 C.ar  425  PHE425     -0.0000
    165  N         30.3310  109.7750   50.4730 N.3   438  HIS438     -0.1241
    166  CA        29.7570  108.6330   51.1540 C.3   438  HIS438      0.1621
    167  C         28.3410  109.0480   51.5310 C.2   438  HIS438      0.2264
    168  O         28.0980  110.2170   51.8130 O.2   438  HIS438     -0.2867
    169  CB        30.5710  108.2720   52.3980 C.3   438  HIS438      0.0745
    170  CG        30.2240  106.9400   52.9920 C.ar  438  HIS438      0.0817
    171  ND1       29.1600  106.7620   53.8480 N.ar  438  HIS438     -0.2268
    172  CD2       30.8110  105.7220   52.8620 C.ar  438  HIS438      0.1154
    173  CE1       29.0960  105.4920   54.2150 C.ar  438  HIS438      0.1986
    174  NE2       30.0790  104.8340   53.6190 N.ar  438  HIS438     -0.2212
@<TRIPOS>BOND
     1    85    86    1
     2   157   156    2
     3   156   155    1
     4    89    86    1
     5    89    90    1
     6    88    87    2
     7    86    87    1
     8   155   158    1
     9   155   154    1
    10    92    90   ar
    11    90    91   ar
    12   158   159    1
    13    93    94    1
    14    75    74    2
    15   159   161   ar
    16   159   160   ar
    17    77    76    1
    18    98    97    1
    19    76    73    1
    20    96    95    2
    21   161   163   ar
    22   160   162   ar
    23     1     2    1
    24     1     7    1
    25    99    97    1
    26    74    73    1
    27    74    78   am
    28    73    72    1
    29    94    97    1
    30    94    95    1
    31    81    80    2
    32     2     3    1
    33     2     5    1
    34     7     6    1
    35     4     3    2
    36   165   166    1
    37    79    78    1
    38    79    80    1
    39    79    82    1
    40   163   164   ar
    41   162   164   ar
    42    66    65    2
    43   166   167    1
    44   166   169    1
    45    72    65   am
    46   167   168    2
    47    84    82    1
    48     5     6    1
    49    65    64    1
    50    82    83    1
    51   169   170    1
    52    23    25   ar
    53    23    21   ar
    54    25    24   ar
    55    21    20   ar
    56    24    22   ar
    57    20    22   ar
    58    20    19    1
    59    19    16    1
    60   172   170   ar
    61   172   174   ar
    62     8     9    1
    63   170   171   ar
    64   148   149    1
    65    67    64    1
    66    67    68    1
    67    64    63    1
    68   149   150    1
    69   149   152    1
    70   150   151    2
    71   174   173   ar
    72   110   108    1
    73    70    69    1
    74    70    71    1
    75   171   173   ar
    76     9    10    1
    77     9    12    1
    78   100   101    1
    79    62    61    2
    80    16    15    1
    81    16    17    1
    82    15    10   am
    83    10    11    2
    84    63    61   am
    85   107   108    2
    86   107   106    1
    87   153   152    1
    88    69    68    1
    89   108   109    1
    90    61    60    1
    91   106   105    1
    92    17    18    2
    93    17    26   am
    94   105   104    1
    95    14    12    1
    96    12    13    1
    97   101   104    1
    98   101   102    1
    99    60    59    1
   100   140   139    1
   101   102   103    2
   102    26    27    1
   103    29    28    2
   104   141   139    1
   105    36    35    2
   106    28    27    1
   107    59    55   am
   108    49    50    1
   109    49    46   am
   110    33    34    1
   111   139   138    1
   112    48    45    1
   113    27    30    1
   114    45    46    1
   115    45    44    1
   116    35    34    1
   117    50    51    1
   118   147   146    1
   119    37    34    1
   120    37    38    1
   121   146   143    1
   122   138   135    1
   123    46    47    2
   124    39    38    1
   125    39    40    1
   126    55    56    2
   127    55    54    1
   128    51    53   am
   129    51    52    2
   130    53    54    1
   131    42    41    1
   132    58    57    1
   133   135   134    1
   134   135   136    1
   135    30    32    1
   136    30    31    1
   137   145   144    2
   138    54    57    1
   139   134   129   am
   140   144   143    1
   141   137   136    2
   142    40    41    2
   143   130   129    2
   144   143   142    1
   145    41    43    1
   146   131   132    1
   147   131   128    1
   148   132   133    1
   149   129   128    1
   150   125   123    1
   151   128   127    1
   152   124   126    1
   153   124   123    1
   154   133   127    1
   155   122   121    2
   156   123   120    1
   157   120   121    1
   158   120   119    1
   159   118   116    1
   160   117   116    1
   161   116   115    1
   162   115   112    1
   163   112   111    1
   164   112   113    1
   165   113   114    2
