@<TRIPOS>MOLECULE
tmp/1z6xB00.pdb
 113 107 0 0 0
SMALL
GASTEIGER

@<TRIPOS>ATOM
      1  N          7.2320  -29.5780   -7.7490 N.3    23  ASP23      -0.1225
      2  CA         6.4150  -28.3780   -7.8440 C.3    23  ASP23       0.1805
      3  C          4.9510  -28.7490   -7.6410 C.2    23  ASP23       0.2598
      4  O          4.5200  -29.8370   -8.0500 O.2    23  ASP23      -0.2718
      5  CB         6.6160  -27.6970   -9.1970 C.3    23  ASP23       0.1424
      6  CG         6.0310  -28.4960  -10.3490 C.2    23  ASP23       0.3668
      7  OD1        6.5820  -29.5700  -10.6810 O.co2  23  ASP23      -0.2456
      8  OD2        5.0180  -28.0380  -10.9230 O.co2  23  ASP23      -0.2456
      9  N          4.2090  -27.8530   -6.9930 N.am   24  ALA24      -0.1966
     10  CA         2.7530  -27.9990   -6.7670 C.3    24  ALA24       0.1728
     11  C          2.3600  -28.9880   -5.6720 C.2    24  ALA24       0.2616
     12  O          1.1860  -29.3330   -5.5410 O.2    24  ALA24      -0.2715
     13  CB         2.0090  -28.3150   -8.0720 C.3    24  ALA24       0.0334
     14  N          3.3400  -29.4410   -4.8920 N.am   25  ALA25      -0.1963
     15  CA         3.0790  -30.3100   -3.7360 C.3    25  ALA25       0.1728
     16  C          2.3340  -29.5310   -2.6550 C.2    25  ALA25       0.2617
     17  O          1.5020  -30.0990   -1.9360 O.2    25  ALA25      -0.2715
     18  CB         4.3820  -30.9030   -3.1800 C.3    25  ALA25       0.0334
     19  N          2.6400  -28.2330   -2.5580 N.am   26  GLY26      -0.1940
     20  CA         1.9460  -27.3230   -1.6500 C.3    26  GLY26       0.2014
     21  C          2.8650  -26.4800   -0.7860 C.2    26  GLY26       0.2639
     22  O          2.4150  -25.7910    0.1310 O.2    26  GLY26      -0.2714
     23  N          4.1530  -26.5170   -1.0910 N.am   27  LYS27      -0.1963
     24  CA         5.1630  -25.8290   -0.2880 C.3    27  LYS27       0.1728
     25  C          4.7670  -24.3960    0.0900 C.2    27  LYS27       0.2617
     26  O          4.6930  -24.0580    1.2840 O.2    27  LYS27      -0.2715
     27  CB         6.5300  -25.9050   -0.9800 C.3    27  LYS27       0.0311
     28  CG         6.9410  -27.3460   -1.2950 C.3    27  LYS27       0.0038
     29  CD         8.2830  -27.4530   -1.9880 C.3    27  LYS27       0.0206
     30  CE         8.2200  -26.9930   -3.4410 C.3    27  LYS27       0.1093
     31  NZ         7.2830  -27.7940   -4.2910 N.3    27  LYS27      -0.1314
     32  N          4.4720  -23.5750   -0.9180 N.am   28  THR28      -0.1937
     33  CA         4.0560  -22.1880   -0.7010 C.3    28  THR28       0.2028
     34  C          2.8120  -22.0910    0.2100 C.2    28  THR28       0.2642
     35  O          2.7660  -21.2640    1.1260 O.2    28  THR28      -0.2714
     36  CB         3.8270  -21.4640   -2.0510 C.3    28  THR28       0.1808
     37  OG1        5.0560  -21.4360   -2.7910 O.3    28  THR28      -0.2208
     38  CG2        3.3300  -20.0320   -1.8430 C.3    28  THR28       0.0379
     39  N          1.8230  -22.9450   -0.0360 N.am   29  THR29      -0.1950
     40  CA         0.6050  -22.9550    0.7520 C.3    29  THR29       0.1897
     41  C          0.9190  -23.2030    2.2210 C.2    29  THR29       0.2313
     42  O          0.4140  -22.4860    3.1020 O.2    29  THR29      -0.2863
     43  CB        -0.3950  -24.0110    0.2340 C.3    29  THR29       0.1794
     44  OG1       -0.6610  -23.7630   -1.1490 O.3    29  THR29      -0.2208
     45  CG2       -1.7140  -23.9530    1.0000 C.3    29  THR29       0.0378
     46  N         12.0590  -19.5780   -1.6960 N.3    51  GLU51      -0.1245
     47  CA        11.0960  -18.9040   -0.8460 C.3    51  GLU51       0.1567
     48  C         11.5170  -19.0360    0.6130 C.2    51  GLU51       0.2260
     49  O         11.8230  -20.1420    1.0900 O.2    51  GLU51      -0.2867
     50  CB         9.6950  -19.4660   -1.0800 C.3    51  GLU51       0.0388
     51  CG         9.1170  -19.0980   -2.4370 C.3    51  GLU51       0.1160
     52  CD         7.8340  -19.8460   -2.7480 C.2    51  GLU51       0.3649
     53  OE1        7.8880  -21.0870   -2.9040 O.co2  51  GLU51      -0.2457
     54  OE2        6.7670  -19.1970   -2.8440 O.co2  51  GLU51      -0.2457
     55  N         11.9500  -26.0850   -5.3950 N.3    64  ASP64      -0.1239
     56  CA        11.4220  -27.2740   -6.0670 C.3    64  ASP64       0.1674
     57  C         12.5130  -28.3280   -6.3270 C.2    64  ASP64       0.2266
     58  O         13.6850  -27.9860   -6.5290 O.2    64  ASP64      -0.2867
     59  CB        10.7560  -26.8780   -7.3990 C.3    64  ASP64       0.1410
     60  CG         9.4440  -26.1240   -7.2120 C.2    64  ASP64       0.3668
     61  OD1        8.7660  -26.3120   -6.1780 O.co2  64  ASP64      -0.2456
     62  OD2        9.0810  -25.3450   -8.1180 O.co2  64  ASP64      -0.2456
     63  N          0.5640  -34.4200    1.6880 N.3   123  ASN123     -0.1225
     64  CA        -0.3960  -33.3510    1.4650 C.3   123  ASN123      0.1785
     65  C         -1.5240  -33.7590    0.5180 C.2   123  ASN123      0.2597
     66  O         -1.4490  -34.7920   -0.1440 O.2   123  ASN123     -0.2718
     67  CB         0.3410  -32.1070    0.9510 C.3   123  ASN123      0.1169
     68  CG        -0.4850  -30.8540    1.0570 C.2   123  ASN123      0.2627
     69  OD1       -1.1890  -30.6390    2.0410 O.2   123  ASN123     -0.2716
     70  ND2       -0.4060  -30.0140    0.0370 N.am  123  ASN123     -0.0877
     71  N         -2.5740  -32.9440    0.4740 N.am  124  LYS124     -0.1980
     72  CA        -3.7110  -33.1530   -0.4240 C.3   124  LYS124      0.1596
     73  C         -4.4890  -34.4410   -0.1120 C.2   124  LYS124      0.2287
     74  O         -5.0180  -35.0950   -1.0190 O.2   124  LYS124     -0.2864
     75  CB        -3.2710  -33.0900   -1.8970 C.3   124  LYS124      0.0298
     76  CG        -2.4030  -31.8960   -2.2400 C.3   124  LYS124      0.0038
     77  CD        -2.5950  -31.4940   -3.6730 C.3   124  LYS124      0.0206
     78  CE        -1.7140  -30.3150   -4.0260 C.3   124  LYS124      0.1093
     79  NZ        -1.7390  -30.0550   -5.4940 N.3   124  LYS124     -0.1314
     80  N         -7.3170  -34.5740    1.3450 N.3   126  ASP126     -0.1225
     81  CA        -8.7240  -34.2510    1.1090 C.3   126  ASP126      0.1805
     82  C         -9.2320  -34.7070   -0.2490 C.2   126  ASP126      0.2597
     83  O        -10.4410  -34.7070   -0.4890 O.2   126  ASP126     -0.2718
     84  CB        -8.9380  -32.7410    1.2340 C.3   126  ASP126      0.1424
     85  CG        -8.1560  -31.9570    0.2020 C.2   126  ASP126      0.3668
     86  OD1       -6.9520  -32.2340    0.0090 O.co2 126  ASP126     -0.2456
     87  OD2       -8.7440  -31.0580   -0.4200 O.co2 126  ASP126     -0.2456
     88  N         -8.3150  -35.0790   -1.1380 N.am  127  LEU127     -0.1979
     89  CA        -8.6870  -35.5170   -2.4790 C.3   127  LEU127      0.1596
     90  C         -9.0940  -36.9870   -2.4830 C.2   127  LEU127      0.2287
     91  O         -8.4340  -37.8080   -1.8400 O.2   127  LEU127     -0.2864
     92  CB        -7.5540  -35.2520   -3.4740 C.3   127  LEU127      0.0297
     93  CG        -7.2020  -33.7690   -3.6270 C.3   127  LEU127      0.0022
     94  CD1       -6.1740  -33.5670   -4.7300 C.3   127  LEU127      0.0001
     95  CD2       -8.4550  -32.9190   -3.8850 C.3   127  LEU127      0.0001
     96  N         -3.6260  -31.6330    4.8960 N.3   156  CYS156     -0.1221
     97  CA        -4.3660  -30.9460    3.8540 C.3   156  CYS156      0.1808
     98  C         -4.1000  -29.4470    3.9950 C.2   156  CYS156      0.2601
     99  O         -4.8600  -28.7210    4.6380 O.2   156  CYS156     -0.2717
    100  CB        -5.8560  -31.2700    3.9350 C.3   156  CYS156      0.0970
    101  SG        -6.8910  -30.2330    2.8690 S.3   156  CYS156     -0.0800
    102  N         -3.0000  -29.0070    3.3810 N.am  157  ALA157     -0.1965
    103  CA        -2.4550  -27.6620    3.5620 C.3   157  ALA157      0.1728
    104  C         -3.4790  -26.5690    3.3330 C.2   157  ALA157      0.2616
    105  O         -3.4960  -25.5710    4.0510 O.2   157  ALA157     -0.2715
    106  CB        -1.2510  -27.4530    2.6640 C.3   157  ALA157      0.0334
    107  N         -4.3350  -26.7680    2.3400 N.am  158  THR158     -0.1951
    108  CA        -5.3540  -25.7860    1.9820 C.3   158  THR158      0.1897
    109  C         -6.2520  -25.3970    3.1620 C.2   158  THR158      0.2313
    110  O         -6.4810  -24.2100    3.3980 O.2   158  THR158     -0.2863
    111  CB        -6.2100  -26.2690    0.7900 C.3   158  THR158      0.1794
    112  OG1       -6.5290  -27.6620    0.9480 O.3   158  THR158     -0.2208
    113  CG2       -5.4480  -26.0820   -0.5000 C.3   158  THR158      0.0378
@<TRIPOS>BOND
     1     8     6   ar
     2     7     6   ar
     3     6     5    1
     4     5     2    1
     5    62    60   ar
     6    13    10    1
     7     4     3    2
     8     2     1    1
     9     2     3    1
    10     3     9   am
    11    59    60    1
    12    59    56    1
    13    60    61   ar
    14     9    10    1
    15    10    11    1
    16    58    57    2
    17    57    56    1
    18    56    55    1
    19    11    12    2
    20    11    14   am
    21    79    78    1
    22    14    15    1
    23    94    93    1
    24    31    30    1
    25    78    77    1
    26    95    93    1
    27    15    18    1
    28    15    16    1
    29    77    76    1
    30    93    92    1
    31    92    89    1
    32    30    29    1
    33    53    52   ar
    34    54    52   ar
    35    37    36    1
    36    52    51    1
    37    16    19   am
    38    16    17    2
    39    19    20    1
    40    90    89    1
    41    90    91    2
    42    89    88    1
    43    51    50    1
    44    76    75    1
    45    36    38    1
    46    36    33    1
    47    29    28    1
    48    75    72    1
    49    46    47    1
    50    20    21    1
    51    28    27    1
    52    44    43    1
    53    88    82   am
    54    23    21   am
    55    23    24    1
    56    50    47    1
    57    74    73    2
    58    27    24    1
    59    32    33    1
    60    32    25   am
    61    47    48    1
    62    21    22    2
    63    33    34    1
    64   113   111    1
    65    83    82    2
    66    72    73    1
    67    72    71    1
    68    87    85   ar
    69    24    25    1
    70    82    81    1
    71    66    65    2
    72    39    34   am
    73    39    40    1
    74    86    85   ar
    75    70    68   am
    76    25    26    2
    77    85    84    1
    78    34    35    2
    79    43    40    1
    80    43    45    1
    81    71    65   am
    82    65    64    1
    83    48    49    2
    84    40    41    1
    85   111   112    1
    86   111   108    1
    87    67    68    1
    88    67    64    1
    89    68    69    2
    90    81    84    1
    91    81    80    1
    92    64    63    1
    93   108   107    1
    94   108   109    1
    95    41    42    2
    96   107   104   am
    97   106   103    1
    98   101   100    1
    99   109   110    2
   100   104   103    1
   101   104   105    2
   102   102   103    1
   103   102    98   am
   104    97   100    1
   105    97    98    1
   106    97    96    1
   107    98    99    2
