@<TRIPOS>MOLECULE
tmp/1z71A00.pdb
 205 207 0 0 0
SMALL
GASTEIGER

@<TRIPOS>ATOM
      1  N         22.5810   -6.9340   18.2650 N.3    69  HIS69      -0.1241
      2  CA        22.4220   -8.2970   17.7590 C.3    69  HIS69       0.1621
      3  C         21.6690   -8.3860   16.4320 C.2    69  HIS69       0.2264
      4  O         21.6700   -9.4270   15.7690 O.2    69  HIS69      -0.2867
      5  CB        21.7630   -9.2090   18.8090 C.3    69  HIS69       0.0745
      6  CG        20.2650   -9.1890   18.8060 C.ar   69  HIS69       0.0817
      7  ND1       19.5290   -8.4690   19.7230 N.ar   69  HIS69      -0.2268
      8  CD2       19.3640   -9.8430   18.0340 C.ar   69  HIS69       0.1154
      9  CE1       18.2430   -8.6840   19.5190 C.ar   69  HIS69       0.1986
     10  NE2       18.1140   -9.5150   18.5000 N.ar   69  HIS69      -0.2212
     11  N         25.9060  -10.9500   15.3450 N.3    73  TYR73      -0.1241
     12  CA        25.6670  -12.0500   16.2660 C.3    73  TYR73       0.1605
     13  C         26.2730  -13.3400   15.7170 C.2    73  TYR73       0.2264
     14  O         25.5900  -14.1500   15.0890 O.2    73  TYR73      -0.2867
     15  CB        24.1730  -12.2380   16.5240 C.3    73  TYR73       0.0534
     16  CG        23.9070  -13.1230   17.7180 C.ar   73  TYR73      -0.0201
     17  CD1       24.3240  -12.7440   18.9870 C.ar   73  TYR73      -0.0009
     18  CD2       23.2940  -14.3590   17.5710 C.ar   73  TYR73      -0.0009
     19  CE1       24.1450  -13.5760   20.0800 C.ar   73  TYR73       0.0417
     20  CE2       23.1100  -15.1990   18.6570 C.ar   73  TYR73       0.0417
     21  CZ        23.5420  -14.8000   19.9100 C.ar   73  TYR73       0.1957
     22  OH        23.3900  -15.6400   20.9870 O.3    73  TYR73      -0.2866
     23  N         24.7640  -17.0850   15.3470 N.3    76  TRP76      -0.1241
     24  CA        23.8300  -17.3690   14.2570 C.3    76  TRP76       0.1605
     25  C         24.3780  -16.8800   12.9170 C.2    76  TRP76       0.2264
     26  O         23.6160  -16.6530   11.9780 O.2    76  TRP76      -0.2867
     27  CB        22.4770  -16.6960   14.5050 C.3    76  TRP76       0.0550
     28  CG        21.7480  -17.1630   15.7290 C.ar   76  TRP76       0.0003
     29  CD1       22.0080  -18.2790   16.4710 C.ar   76  TRP76       0.0946
     30  CD2       20.6140  -16.5340   16.3370 C.ar   76  TRP76       0.0152
     31  NE1       21.1060  -18.3820   17.5040 N.ar   76  TRP76      -0.2442
     32  CE2       20.2390  -17.3230   17.4420 C.ar   76  TRP76       0.0810
     33  CE3       19.8770  -15.3800   16.0500 C.ar   76  TRP76       0.0012
     34  CZ2       19.1610  -16.9930   18.2630 C.ar   76  TRP76       0.0191
     35  CZ3       18.8080  -15.0560   16.8670 C.ar   76  TRP76       0.0001
     36  CH2       18.4610  -15.8600   17.9580 C.ar   76  TRP76       0.0015
     37  N         28.0730  -10.2280   22.8540 N.3   118  TRP118     -0.1227
     38  CA        27.3020  -11.2240   22.1150 C.3   118  TRP118      0.1737
     39  C         27.6650  -12.6470   22.5210 C.2   118  TRP118      0.2595
     40  O         26.9310  -13.5930   22.2360 O.2   118  TRP118     -0.2718
     41  CB        27.5420  -11.0740   20.6150 C.3   118  TRP118      0.0564
     42  CG        28.9960  -11.0310   20.2240 C.ar  118  TRP118      0.0003
     43  CD1       29.7640   -9.9150   20.0480 C.ar  118  TRP118      0.0946
     44  CD2       29.8470  -12.1520   19.9390 C.ar  118  TRP118      0.0152
     45  NE1       31.0370  -10.2700   19.6660 N.ar  118  TRP118     -0.2442
     46  CE2       31.1140  -11.6360   19.5920 C.ar  118  TRP118      0.0810
     47  CE3       29.6600  -13.5380   19.9420 C.ar  118  TRP118      0.0012
     48  CZ2       32.1890  -12.4590   19.2500 C.ar  118  TRP118      0.0191
     49  CZ3       30.7300  -14.3560   19.6020 C.ar  118  TRP118      0.0001
     50  CH2       31.9770  -13.8120   19.2610 C.ar  118  TRP118      0.0015
     51  N         28.8060  -12.7940   23.1820 N.am  119  ARG119     -0.1966
     52  CA        29.2680  -14.1090   23.6000 C.3   119  ARG119      0.1729
     53  C         28.4610  -14.7250   24.7290 C.2   119  ARG119      0.2616
     54  O         28.2380  -15.9360   24.7500 O.2   119  ARG119     -0.2715
     55  CB        30.7360  -14.0380   24.0290 C.3   119  ARG119      0.0348
     56  CG        31.7020  -13.7830   22.8990 C.3   119  ARG119      0.0492
     57  CD        33.1320  -13.6690   23.4030 C.3   119  ARG119      0.2205
     58  NE        34.0790  -13.9850   22.3390 N.pl3 119  ARG119     -0.0865
     59  CZ        34.3500  -15.2220   21.9330 C.cat 119  ARG119      0.5346
     60  NH1       33.7550  -16.2580   22.5080 N.pl3 119  ARG119      0.1354
     61  NH2       35.2040  -15.4230   20.9390 N.pl3 119  ARG119      0.1354
     62  N         28.0010  -13.8980   25.6580 N.am  120  GLU120     -0.1963
     63  CA        27.2870  -14.4330   26.8020 C.3   120  GLU120      0.1733
     64  C         25.8150  -14.0980   26.9860 C.2   120  GLU120      0.2616
     65  O         24.9570  -14.9750   26.8900 O.2   120  GLU120     -0.2715
     66  CB        28.0260  -14.0380   28.0870 C.3   120  GLU120      0.0429
     67  CG        27.5080  -14.7320   29.3430 C.3   120  GLU120      0.1163
     68  CD        27.9140  -14.0070   30.6290 C.2   120  GLU120      0.3649
     69  OE1       28.9820  -13.3570   30.6420 O.co2 120  GLU120     -0.2457
     70  OE2       27.1650  -14.1000   31.6260 O.co2 120  GLU120     -0.2457
     71  N         25.5270  -12.8270   27.2460 N.am  121  ASN121     -0.1958
     72  CA        24.1630  -12.4050   27.5520 C.3   121  ASN121      0.1819
     73  C         23.6280  -11.1730   26.8280 C.2   121  ASN121      0.2621
     74  O         22.6780  -10.5530   27.3010 O.2   121  ASN121     -0.2715
     75  CB        24.0850  -12.1390   29.0490 C.3   121  ASN121      0.1195
     76  CG        25.0720  -11.0550   29.4850 C.2   121  ASN121      0.2630
     77  OD1       25.8020  -10.5050   28.6600 O.2   121  ASN121     -0.2716
     78  ND2       25.0950  -10.7480   30.7740 N.am  121  ASN121     -0.0877
     79  N         24.2170  -10.8150   25.6950 N.am  122  LEU122     -0.1977
     80  CA        23.7780   -9.6340   24.9540 C.3   122  LEU122      0.1596
     81  C         23.8300   -8.3510   25.7850 C.2   122  LEU122      0.2287
     82  O         23.0130   -7.4450   25.6010 O.2   122  LEU122     -0.2864
     83  CB        22.3610   -9.8340   24.4060 C.3   122  LEU122      0.0297
     84  CG        22.2510  -10.8790   23.2940 C.3   122  LEU122      0.0022
     85  CD1       20.8100  -10.9250   22.7580 C.3   122  LEU122      0.0001
     86  CD2       23.2220  -10.5290   22.1720 C.3   122  LEU122      0.0001
     87  N         20.1450  -16.9050   32.5830 N.3   197  ILE197     -0.1245
     88  CA        21.0150  -15.9030   31.9650 C.3   197  ILE197      0.1561
     89  C         21.3920  -14.8180   32.9740 C.2   197  ILE197      0.2260
     90  O         20.5520  -14.3580   33.7510 O.2   197  ILE197     -0.2867
     91  CB        20.3160  -15.2320   30.7370 C.3   197  ILE197      0.0252
     92  CG1       19.8930  -16.2960   29.7200 C.3   197  ILE197      0.0019
     93  CG2       21.2720  -14.2340   30.0450 C.3   197  ILE197      0.0019
     94  CD1       21.0550  -16.9510   28.9970 C.3   197  ILE197      0.0001
     95  N          4.1750   -9.8380   24.6380 N.3   217  ASP217     -0.1225
     96  CA         5.6280   -9.9320   24.6110 C.3   217  ASP217      0.1805
     97  C          6.0730   -9.6610   23.1840 C.2   217  ASP217      0.2598
     98  O          5.2450   -9.6190   22.2680 O.2   217  ASP217     -0.2718
     99  CB         6.0490  -11.3490   25.0150 C.3   217  ASP217      0.1424
    100  CG         7.5500  -11.4820   25.2570 C.2   217  ASP217      0.3668
    101  OD1        8.0350  -12.6310   25.3590 O.co2 217  ASP217     -0.2456
    102  OD2        8.2370  -10.4480   25.3530 O.co2 217  ASP217     -0.2456
    103  N          7.3710   -9.4490   22.9990 N.am  218  ALA218     -0.1966
    104  CA         7.9100   -9.2530   21.6730 C.3   218  ALA218      0.1728
    105  C          8.2450  -10.6740   21.2210 C.2   218  ALA218      0.2616
    106  O          8.1380  -11.6140   22.0060 O.2   218  ALA218     -0.2715
    107  CB         9.1650   -8.4060   21.7230 C.3   218  ALA218      0.0334
    108  N          8.6260  -10.8270   19.9620 N.am  219  CYS219     -0.1954
    109  CA         8.9790  -12.1310   19.4300 C.3   219  CYS219      0.1843
    110  C          9.8420  -11.9300   18.1910 C.2   219  CYS219      0.2625
    111  O         10.0320  -10.7930   17.7740 O.2   219  CYS219     -0.2714
    112  CB         7.7150  -12.8910   19.0970 C.3   219  CYS219      0.0997
    113  SG         7.9750  -14.7130   19.0190 S.3   219  CYS219     -0.0797
    114  N         10.3850  -13.0110   17.6290 N.am  220  GLU220     -0.1977
    115  CA        11.2520  -12.9210   16.4550 C.3   220  GLU220      0.1602
    116  C         10.8230  -11.8640   15.4380 C.2   220  GLU220      0.2287
    117  O          9.6960  -11.8860   14.9390 O.2   220  GLU220     -0.2864
    118  CB        11.3600  -14.2870   15.7720 C.3   220  GLU220      0.0415
    119  CG        12.2550  -14.2830   14.5390 C.3   220  GLU220      0.1163
    120  CD        12.5850  -15.6800   14.0510 C.2   220  GLU220      0.3649
    121  OE1       11.7160  -16.5700   14.1580 O.co2 220  GLU220     -0.2457
    122  OE2       13.7100  -15.8820   13.5470 O.co2 220  GLU220     -0.2457
    123  N         13.1070   -7.6000   17.4690 N.3   223  SER223     -0.1217
    124  CA        14.4260   -7.1920   17.9450 C.3   223  SER223      0.1889
    125  C         14.7910   -5.8070   17.4330 C.2   223  SER223      0.2288
    126  O         14.5270   -5.4870   16.2780 O.2   223  SER223     -0.2866
    127  CB        15.4840   -8.1850   17.4550 C.3   223  SER223      0.2089
    128  OG        15.2700   -9.4770   17.9920 O.3   223  SER223     -0.2183
    129  N         14.1250   -3.5970   22.2980 N.3   243  VAL243     -0.1231
    130  CA        13.8080   -5.0220   22.3380 C.3   243  VAL243      0.1692
    131  C         15.1050   -5.7960   22.1780 C.2   243  VAL243      0.2593
    132  O         15.7470   -5.7160   21.1290 O.2   243  VAL243     -0.2718
    133  CB        12.8640   -5.4300   21.1910 C.3   243  VAL243      0.0266
    134  CG1       12.5700   -6.9520   21.2730 C.3   243  VAL243      0.0020
    135  CG2       11.5730   -4.6200   21.2640 C.3   243  VAL243      0.0020
    136  N         15.4880   -6.5470   23.2090 N.am  244  SER244     -0.1938
    137  CA        16.7350   -7.2980   23.1570 C.3   244  SER244      0.2055
    138  C         16.5820   -8.8130   23.1410 C.2   244  SER244      0.2643
    139  O         16.7110   -9.4300   22.0910 O.2   244  SER244     -0.2714
    140  CB        17.6520   -6.8890   24.3190 C.3   244  SER244      0.2130
    141  OG        18.9210   -7.5280   24.2260 O.3   244  SER244     -0.2179
    142  N         16.3030   -9.4220   24.2900 N.am  245  TRP245     -0.1959
    143  CA        16.1940  -10.8740   24.3130 C.3   245  TRP245      0.1771
    144  C         15.1360  -11.4900   25.2150 C.2   245  TRP245      0.2620
    145  O         14.5370  -10.8310   26.0670 O.2   245  TRP245     -0.2715
    146  CB        17.5570  -11.4950   24.6520 C.3   245  TRP245      0.0590
    147  CG        18.0950  -11.1120   26.0100 C.ar  245  TRP245      0.0006
    148  CD1       18.8470  -10.0180   26.3190 C.ar  245  TRP245      0.0946
    149  CD2       17.9030  -11.8250   27.2400 C.ar  245  TRP245      0.0152
    150  NE1       19.1370  -10.0030   27.6650 N.ar  245  TRP245     -0.2442
    151  CE2       18.5670  -11.1010   28.2520 C.ar  245  TRP245      0.0810
    152  CE3       17.2330  -13.0050   27.5830 C.ar  245  TRP245      0.0012
    153  CZ2       18.5820  -11.5190   29.5840 C.ar  245  TRP245      0.0191
    154  CZ3       17.2490  -13.4180   28.9060 C.ar  245  TRP245      0.0001
    155  CH2       17.9190  -12.6750   29.8890 C.ar  245  TRP245      0.0015
    156  N         14.9160  -12.7800   24.9980 N.am  246  GLY246     -0.1940
    157  CA        13.9490  -13.5290   25.7740 C.3   246  GLY246      0.2014
    158  C         14.0840  -15.0090   25.4650 C.2   246  GLY246      0.2639
    159  O         14.8000  -15.3970   24.5430 O.2   246  GLY246     -0.2714
    160  N         13.4070  -15.8360   26.2500 N.am  247  GLU247     -0.1963
    161  CA        13.4250  -17.2780   26.0600 C.3   247  GLU247      0.1733
    162  C         12.0040  -17.6480   25.6480 C.2   247  GLU247      0.2617
    163  O         11.0950  -17.7070   26.4780 O.2   247  GLU247     -0.2715
    164  CB        13.8470  -17.9490   27.3670 C.3   247  GLU247      0.0429
    165  CG        15.1930  -17.4200   27.8410 C.3   247  GLU247      0.1163
    166  CD        15.6110  -17.9470   29.1790 C.2   247  GLU247      0.3649
    167  OE1       16.1760  -19.0620   29.2320 O.co2 247  GLU247     -0.2457
    168  OE2       15.3710  -17.2470   30.1820 O.co2 247  GLU247     -0.2457
    169  N         11.8240  -17.8770   24.3510 N.am  248  GLY248     -0.1940
    170  CA        10.5090  -18.1770   23.8260 C.3   248  GLY248      0.2014
    171  C          9.7940  -16.8400   23.7130 C.2   248  GLY248      0.2639
    172  O         10.4180  -15.7860   23.8580 O.2   248  GLY248     -0.2714
    173  N          8.4900  -16.8750   23.4760 N.am  249  CYS249     -0.1967
    174  CA         7.6930  -15.6570   23.3490 C.3   249  CYS249      0.1712
    175  C          6.4110  -15.7890   24.1330 C.2   249  CYS249      0.2296
    176  O          5.6410  -16.7260   23.9220 O.2   249  CYS249     -0.2864
    177  CB         7.3350  -15.3910   21.8870 C.3   249  CYS249      0.0983
    178  SG         8.7910  -15.1780   20.8280 S.3   249  CYS249     -0.0798
    179  N         10.4100  -10.3820   28.7630 N.3   256  GLY256     -0.1210
    180  CA        11.2650   -9.8800   27.7130 C.3   256  GLY256      0.1956
    181  C         12.2980   -8.9650   28.3370 C.2   256  GLY256      0.2612
    182  O         12.0090   -8.2700   29.3110 O.2   256  GLY256     -0.2717
    183  N         13.5070   -8.9680   27.7880 N.am  257  PHE257     -0.1962
    184  CA        14.5660   -8.1120   28.3120 C.3   257  PHE257      0.1771
    185  C         14.9050   -7.0330   27.3070 C.2   257  PHE257      0.2619
    186  O         15.0380   -7.2970   26.1110 O.2   257  PHE257     -0.2715
    187  CB        15.8010   -8.9410   28.6780 C.3   257  PHE257      0.0574
    188  CG        15.6520   -9.7000   29.9660 C.ar  257  PHE257     -0.0200
    189  CD1       14.8530  -10.8290   30.0320 C.ar  257  PHE257     -0.0042
    190  CD2       16.2550   -9.2410   31.1250 C.ar  257  PHE257     -0.0042
    191  CE1       14.6760  -11.4990   31.2260 C.ar  257  PHE257     -0.0003
    192  CE2       16.0840   -9.9070   32.3260 C.ar  257  PHE257     -0.0003
    193  CZ        15.2870  -11.0280   32.3800 C.ar  257  PHE257     -0.0000
    194  N         15.0580   -5.8150   27.8180 N.am  258  TYR258     -0.1974
    195  CA        15.3150   -4.6560   26.9920 C.3   258  TYR258      0.1639
    196  C         16.5920   -3.9300   27.3510 C.2   258  TYR258      0.2290
    197  O         16.9590   -3.8340   28.5220 O.2   258  TYR258     -0.2864
    198  CB        14.1400   -3.6830   27.1180 C.3   258  TYR258      0.0560
    199  CG        12.8070   -4.3000   26.7710 C.ar  258  TYR258     -0.0198
    200  CD1       12.1590   -5.1610   27.6530 C.ar  258  TYR258     -0.0009
    201  CD2       12.2320   -4.0870   25.5240 C.ar  258  TYR258     -0.0009
    202  CE1       10.9840   -5.8000   27.2940 C.ar  258  TYR258      0.0417
    203  CE2       11.0600   -4.7180   25.1620 C.ar  258  TYR258      0.0417
    204  CZ        10.4440   -5.5750   26.0490 C.ar  258  TYR258      0.1957
    205  OH         9.2930   -6.2270   25.6720 O.3   258  TYR258     -0.2866
@<TRIPOS>BOND
     1    26    25    2
     2    25    24    1
     3   122   120   ar
     4   120   121   ar
     5   120   119    1
     6    24    27    1
     7    24    23    1
     8    27    28    1
     9   119   118    1
    10   117   116    2
    11    14    13    2
    12    11    12    1
    13   116   115    1
    14    13    12    1
    15    28    30   ar
    16    28    29   ar
    17     4     3    2
    18   118   115    1
    19    33    30   ar
    20    33    35   ar
    21    12    15    1
    22   126   125    2
    23    30    32   ar
    24     3     2    1
    25   115   114    1
    26    29    31   ar
    27    15    16    1
    28    35    36   ar
    29   125   124    1
    30    32    31   ar
    31    32    34   ar
    32   127   124    1
    33   127   128    1
    34   123   124    1
    35    18    16   ar
    36    18    20   ar
    37   114   110   am
    38    16    17   ar
    39     2     1    1
    40     2     5    1
    41   111   110    2
    42    36    34   ar
    43     8    10   ar
    44     8     6   ar
    45   110   109    1
    46    10     9   ar
    47    20    21   ar
    48     6     5    1
    49     6     7   ar
    50    17    19   ar
    51   113   112    1
    52   113   178    1
    53   112   109    1
    54    48    50   ar
    55    48    46   ar
    56    50    49   ar
    57   109   108    1
    58     9     7   ar
    59    46    45   ar
    60    46    44   ar
    61    49    47   ar
    62    45    43   ar
    63    21    19   ar
    64    21    22    1
    65    44    47   ar
    66    44    42   ar
    67   108   105   am
    68    43    42   ar
    69    42    41    1
    70    41    38    1
    71   178   177    1
    72    61    59    1
    73   132   131    2
    74   133   135    1
    75   133   134    1
    76   133   130    1
    77   105   104    1
    78   105   106    2
    79   104   107    1
    80   104   103    1
    81   177   174    1
    82    59    58    2
    83    59    60    1
    84   139   138    2
    85    38    39    1
    86    38    37    1
    87    86    84    1
    88   131   130    1
    89   131   136   am
    90    40    39    2
    91    98    97    2
    92   129   130    1
    93    58    57    1
    94    39    51   am
    95    85    84    1
    96    56    57    1
    97    56    55    1
    98   103    97   am
    99   138   137    1
   100   138   142   am
   101   137   136    1
   102   137   140    1
   103    51    52    1
   104    97    96    1
   105    84    83    1
   106   174   173    1
   107   174   175    1
   108   173   171   am
   109    52    55    1
   110    52    53    1
   111   171   170    1
   112   171   172    2
   113   170   169    1
   114   176   175    2
   115   141   140    1
   116   142   143    1
   117   143   146    1
   118   143   144    1
   119   169   162   am
   120    83    80    1
   121   159   158    2
   122    96    95    1
   123    96    99    1
   124   146   147    1
   125    53    54    2
   126    53    62   am
   127    80    79    1
   128    80    81    1
   129   156   144   am
   130   156   157    1
   131    99   100    1
   132   203   201   ar
   133   203   204   ar
   134   144   145    2
   135   100   102   ar
   136   100   101   ar
   137   158   157    1
   138   158   160   am
   139   201   199   ar
   140    82    81    2
   141   162   161    1
   142   162   163    2
   143    62    63    1
   144   205   204    1
   145    79    73   am
   146   147   148   ar
   147   147   149   ar
   148   204   202   ar
   149   161   160    1
   150   161   164    1
   151   186   185    2
   152   148   150   ar
   153   199   198    1
   154   199   200   ar
   155    63    64    1
   156    63    66    1
   157    73    74    2
   158    73    72    1
   159    65    64    2
   160    64    71   am
   161   195   198    1
   162   195   196    1
   163   195   194    1
   164   149   152   ar
   165   149   151   ar
   166    71    72    1
   167   202   200   ar
   168   185   194   am
   169   185   184    1
   170   196   197    2
   171   164   165    1
   172    72    75    1
   173   152   154   ar
   174   150   151   ar
   175   180   181    1
   176   180   179    1
   177   183   184    1
   178   183   181   am
   179   165   166    1
   180    66    67    1
   181   151   153   ar
   182   184   187    1
   183   181   182    2
   184    77    76    2
   185   187   188    1
   186   154   155   ar
   187    94    92    1
   188    75    76    1
   189   166   167   ar
   190   166   168   ar
   191    67    68    1
   192    76    78   am
   193   153   155   ar
   194    92    91    1
   195   188   189   ar
   196   188   190   ar
   197   189   191   ar
   198    93    91    1
   199    68    69   ar
   200    68    70   ar
   201    91    88    1
   202   190   192   ar
   203   191   193   ar
   204    88    87    1
   205    88    89    1
   206   192   193   ar
   207    89    90    2
