@<TRIPOS>MOLECULE
tmp/1z76B00.pdb
 124 122 0 0 0
SMALL
GASTEIGER

@<TRIPOS>ATOM
      1  N         18.1230   35.0300   10.5800 N.3     2  LEU2       -0.1245
      2  CA        18.0310   34.4340   11.9450 C.3     2  LEU2        0.1561
      3  C         16.6950   34.7390   12.6840 C.2     2  LEU2        0.2260
      4  O         16.2470   33.9450   13.5490 O.2     2  LEU2       -0.2867
      5  CB        19.2720   34.7800   12.8160 C.3     2  LEU2        0.0270
      6  CG        20.6510   34.1440   12.4950 C.3     2  LEU2        0.0019
      7  CD1       21.6320   34.4950   13.6350 C.3     2  LEU2        0.0001
      8  CD2       20.6110   32.5950   12.3370 C.3     2  LEU2        0.0001
      9  N         14.4180   31.8350   11.6180 N.3     5  PHE5       -0.1241
     10  CA        14.8690   30.5490   12.2670 C.3     5  PHE5        0.1605
     11  C         14.2840   30.4890   13.7130 C.2     5  PHE5        0.2264
     12  O         13.7920   29.4260   14.1320 O.2     5  PHE5       -0.2867
     13  CB        16.4350   30.4360   12.2660 C.3     5  PHE5        0.0534
     14  CG        17.0190   29.0750   12.7280 C.ar    5  PHE5       -0.0203
     15  CD1       16.4110   27.8360   12.3980 C.ar    5  PHE5       -0.0042
     16  CD2       18.2430   29.0480   13.4330 C.ar    5  PHE5       -0.0042
     17  CE1       17.0190   26.5840   12.7620 C.ar    5  PHE5       -0.0003
     18  CE2       18.8880   27.8050   13.8080 C.ar    5  PHE5       -0.0003
     19  CZ        18.2670   26.5600   13.4680 C.ar    5  PHE5       -0.0000
     20  N         11.6290   27.5730   15.3040 N.3     9  ILE9       -0.1245
     21  CA        11.9680   26.7960   16.5450 C.3     9  ILE9        0.1561
     22  C         10.7930   26.8570   17.5830 C.2     9  ILE9        0.2260
     23  O         10.4140   25.8100   18.1530 O.2     9  ILE9       -0.2867
     24  CB        13.3500   27.2960   17.2170 C.3     9  ILE9        0.0252
     25  CG1       14.5730   27.0080   16.2860 C.3     9  ILE9        0.0019
     26  CG2       13.5990   26.6070   18.5880 C.3     9  ILE9        0.0019
     27  CD1       15.9370   27.6380   16.7600 C.3     9  ILE9        0.0001
     28  N         17.9440   26.5270   23.0950 N.3    21  TYR21      -0.1227
     29  CA        18.8890   26.2180   21.9800 C.3    21  TYR21       0.1736
     30  C         19.8860   27.3270   21.4680 C.2    21  TYR21       0.2595
     31  O         20.6920   27.0650   20.5430 O.2    21  TYR21      -0.2718
     32  CB        18.0990   25.5670   20.7810 C.3    21  TYR21       0.0548
     33  CG        17.4030   24.1940   21.0840 C.ar   21  TYR21      -0.0200
     34  CD1       18.1010   22.9730   20.9220 C.ar   21  TYR21      -0.0009
     35  CD2       16.0850   24.1300   21.6020 C.ar   21  TYR21      -0.0009
     36  CE1       17.5050   21.7090   21.2890 C.ar   21  TYR21       0.0417
     37  CE2       15.4730   22.8610   21.9800 C.ar   21  TYR21       0.0417
     38  CZ        16.2080   21.6560   21.8170 C.ar   21  TYR21       0.1957
     39  OH        15.6610   20.4180   22.1870 O.3    21  TYR21      -0.2866
     40  N         19.8680   28.5400   22.0650 N.am   22  LEU22      -0.1980
     41  CA        20.7830   29.6610   21.6620 C.3    22  LEU22       0.1596
     42  C         22.2980   29.4480   21.9520 C.2    22  LEU22       0.2287
     43  O         23.1610   30.0120   21.2390 O.2    22  LEU22      -0.2864
     44  CB        20.2680   31.0150   22.2420 C.3    22  LEU22       0.0297
     45  CG        20.9740   32.3420   21.9330 C.3    22  LEU22       0.0022
     46  CD1       19.9370   33.3790   21.5220 C.3    22  LEU22       0.0001
     47  CD2       21.8060   32.8120   23.1250 C.3    22  LEU22       0.0001
     48  N         29.0410   23.4240   19.3610 N.3    27  TYR27      -0.1227
     49  CA        28.5050   23.9170   18.0600 C.3    27  TYR27       0.1736
     50  C         27.1490   24.7030   17.9850 C.2    27  TYR27       0.2596
     51  O         26.9090   25.3810   16.9670 O.2    27  TYR27      -0.2718
     52  CB        28.5330   22.7700   16.9790 C.3    27  TYR27       0.0548
     53  CG        29.9340   22.4230   16.4220 C.ar   27  TYR27      -0.0200
     54  CD1       30.7690   21.4600   17.0720 C.ar   27  TYR27      -0.0009
     55  CD2       30.4880   23.1440   15.3330 C.ar   27  TYR27      -0.0009
     56  CE1       32.1340   21.2460   16.6540 C.ar   27  TYR27       0.0417
     57  CE2       31.8610   22.9360   14.9020 C.ar   27  TYR27       0.0417
     58  CZ        32.6700   21.9890   15.5730 C.ar   27  TYR27       0.1957
     59  OH        33.9910   21.7960   15.1710 O.3    27  TYR27      -0.2866
     60  N         26.2590   24.6290   18.9990 N.am   28  CYS28      -0.1956
     61  CA        24.9870   25.3980   18.9170 C.3    28  CYS28       0.1843
     62  C         25.1950   26.9300   19.2250 C.2    28  CYS28       0.2626
     63  O         25.5860   27.2980   20.3560 O.2    28  CYS28      -0.2714
     64  CB        23.8380   24.7600   19.7440 C.3    28  CYS28       0.0997
     65  SG        23.3060   23.0170   19.3690 S.3    28  CYS28      -0.0797
     66  N         25.0470   27.7370   18.1540 N.am   29  GLY29      -0.1940
     67  CA        25.2470   29.2100   18.0840 C.3    29  GLY29       0.2014
     68  C         25.8050   29.5530   16.6610 C.2    29  GLY29       0.2638
     69  O         25.7900   28.6520   15.8080 O.2    29  GLY29      -0.2714
     70  N         26.1490   30.8140   16.3110 N.am   30  LEU30      -0.1977
     71  CA        26.7650   31.1010   14.9600 C.3    30  LEU30       0.1596
     72  C         28.2760   30.7410   15.0600 C.2    30  LEU30       0.2287
     73  O         28.9660   31.2300   15.9660 O.2    30  LEU30      -0.2864
     74  CB        26.6170   32.5760   14.5230 C.3    30  LEU30       0.0297
     75  CG        26.8220   32.9650   13.0380 C.3    30  LEU30       0.0022
     76  CD1       25.6240   32.4550   12.1780 C.3    30  LEU30       0.0001
     77  CD2       26.9930   34.5220   12.8660 C.3    30  LEU30       0.0001
     78  N         23.5750   20.4920   15.2980 N.3    44  CYS44      -0.1235
     79  CA        24.1420   21.8640   15.0340 C.3    44  CYS44       0.1677
     80  C         25.4870   21.8600   14.1920 C.2    44  CYS44       0.2270
     81  O         25.7870   22.8280   13.4360 O.2    44  CYS44      -0.2867
     82  CB        24.2470   22.6820   16.3710 C.3    44  CYS44       0.0956
     83  SG        22.7200   23.0310   17.3900 S.3    44  CYS44      -0.0801
     84  N         24.3840   21.5380   10.5750 N.3    47  HIS47      -0.1226
     85  CA        23.7770   22.8600   10.1830 C.3    47  HIS47       0.1752
     86  C         24.9150   23.8470    9.7410 C.2    47  HIS47       0.2596
     87  O         24.7540   24.5380    8.7140 O.2    47  HIS47      -0.2718
     88  CB        22.9150   23.4220   11.3670 C.3    47  HIS47       0.0759
     89  CG        22.1540   24.7140   11.1010 C.ar   47  HIS47       0.0818
     90  ND1       22.5000   25.9230   11.6780 N.ar   47  HIS47      -0.2268
     91  CD2       21.0480   24.9610   10.3440 C.ar   47  HIS47       0.1154
     92  CE1       21.6490   26.8610   11.2820 C.ar   47  HIS47       0.1986
     93  NE2       20.7550   26.3070   10.4700 N.ar   47  HIS47      -0.2212
     94  N         26.0600   23.8860   10.4710 N.am   48  ASP48      -0.1974
     95  CA        27.2220   24.7570   10.1060 C.3    48  ASP48       0.1709
     96  C         27.8670   24.3170    8.7490 C.2    48  ASP48       0.2293
     97  O         28.2420   25.1760    7.9260 O.2    48  ASP48      -0.2864
     98  CB        28.3210   24.7340   11.2120 C.3    48  ASP48       0.1436
     99  CG        28.0620   25.7190   12.4110 C.2    48  ASP48       0.3671
    100  OD1       26.9440   26.2810   12.6030 O.co2  48  ASP48      -0.2456
    101  OD2       29.0330   25.9270   13.2070 O.co2  48  ASP48      -0.2456
    102  N         25.4850   25.6580    5.7910 N.3    51  TYR51      -0.1241
    103  CA        25.6580   27.1160    5.5380 C.3    51  TYR51       0.1605
    104  C         27.0020   27.4160    4.7450 C.2    51  TYR51       0.2264
    105  O         27.0740   28.3810    3.9460 O.2    51  TYR51      -0.2867
    106  CB        25.6340   27.9060    6.8770 C.3    51  TYR51       0.0534
    107  CG        24.2700   28.3400    7.5260 C.ar   51  TYR51      -0.0201
    108  CD1       23.0060   28.0040    6.9770 C.ar   51  TYR51      -0.0009
    109  CD2       24.2780   29.1640    8.6810 C.ar   51  TYR51      -0.0009
    110  CE1       21.7450   28.5110    7.5940 C.ar   51  TYR51       0.0417
    111  CE2       23.0670   29.6730    9.2880 C.ar   51  TYR51       0.0417
    112  CZ        21.8090   29.3460    8.7460 C.ar   51  TYR51       0.1957
    113  OH        20.6630   29.8460    9.3650 O.3    51  TYR51      -0.2866
    114  N         16.1070   18.3030   16.2200 N.3    96  PHE96      -0.1241
    115  CA        15.9300   18.7110   17.6320 C.3    96  PHE96       0.1605
    116  C         14.7420   17.8720   18.2470 C.2    96  PHE96       0.2264
    117  O         14.8820   17.3100   19.3440 O.2    96  PHE96      -0.2867
    118  CB        15.6220   20.2600   17.7590 C.3    96  PHE96       0.0534
    119  CG        16.7840   21.2350   17.3720 C.ar   96  PHE96      -0.0203
    120  CD1       18.1560   20.8460   17.3500 C.ar   96  PHE96      -0.0042
    121  CD2       16.4700   22.6060   17.0610 C.ar   96  PHE96      -0.0042
    122  CE1       19.2240   21.7990   17.0250 C.ar   96  PHE96      -0.0003
    123  CE2       17.4990   23.5700   16.7240 C.ar   96  PHE96      -0.0003
    124  CZ        18.8790   23.1760   16.7030 C.ar   96  PHE96      -0.0000
@<TRIPOS>BOND
     1   105   104    2
     2   104   103    1
     3   103   102    1
     4   103   106    1
     5   106   107    1
     6   108   107   ar
     7   108   110   ar
     8   107   109   ar
     9   110   112   ar
    10    97    96    2
    11   109   111   ar
    12    87    86    2
    13   112   111   ar
    14   112   113    1
    15    96    95    1
    16    86    85    1
    17    86    94   am
    18    95    94    1
    19    95    98    1
    20    85    84    1
    21    85    88    1
    22    91    93   ar
    23    91    89   ar
    24    93    92   ar
    25     1     2    1
    26    89    88    1
    27    89    90   ar
    28    98    99    1
    29    92    90   ar
    30     9    10    1
    31     2     3    1
    32     2     5    1
    33    76    75    1
    34    13    10    1
    35    13    14    1
    36    10    11    1
    37     8     6    1
    38    15    14   ar
    39    15    17   ar
    40    99   100   ar
    41    99   101   ar
    42     6     5    1
    43     6     7    1
    44     3     4    2
    45    14    16   ar
    46    17    19   ar
    47    77    75    1
    48    75    74    1
    49    16    18   ar
    50    81    80    2
    51    19    18   ar
    52    11    12    2
    53    80    79    1
    54    74    71    1
    55    57    55   ar
    56    57    58   ar
    57    71    72    1
    58    71    70    1
    59    79    78    1
    60    79    82    1
    61    72    73    2
    62    59    58    1
    63    20    21    1
    64    55    53   ar
    65    58    56   ar
    66    69    68    2
    67   114   115    1
    68    25    27    1
    69    25    24    1
    70    70    68   am
    71    82    83    1
    72    53    52    1
    73    53    54   ar
    74    21    24    1
    75    21    22    1
    76    56    54   ar
    77    68    67    1
    78   124   123   ar
    79   124   122   ar
    80   123   121   ar
    81    51    50    2
    82    52    49    1
    83   122   120   ar
    84   121   119   ar
    85    24    26    1
    86   120   119   ar
    87   119   118    1
    88    83    65    1
    89    22    23    2
    90   115   118    1
    91   115   116    1
    92    50    49    1
    93    50    60   am
    94    49    48    1
    95    67    66    1
    96    66    62   am
    97   116   117    2
    98    61    60    1
    99    61    62    1
   100    61    64    1
   101    62    63    2
   102    65    64    1
   103    31    30    2
   104    32    33    1
   105    32    29    1
   106    34    33   ar
   107    34    36   ar
   108    33    35   ar
   109    43    42    2
   110    36    38   ar
   111    30    29    1
   112    30    40   am
   113    46    45    1
   114    35    37   ar
   115    41    42    1
   116    41    40    1
   117    41    44    1
   118    38    37   ar
   119    38    39    1
   120    45    44    1
   121    45    47    1
   122    29    28    1
