@<TRIPOS>MOLECULE
tmp/1z7eD00.pdb
 194 188 0 0 0
SMALL
GASTEIGER

@<TRIPOS>ATOM
      1  N        133.6220   30.3840   55.1750 N.3   310  GLY310     -0.1225
      2  CA       133.7840   30.7330   53.7730 C.3   310  GLY310      0.1811
      3  C        133.1560   32.1100   53.6030 C.2   310  GLY310      0.2280
      4  O        132.6470   32.4680   52.5450 O.2   310  GLY310     -0.2866
      5  N        134.2880   34.9700   53.0950 N.3   312  ASN312     -0.1225
      6  CA       134.8220   35.9000   52.0940 C.3   312  ASN312      0.1785
      7  C        134.2570   35.6400   50.6990 C.2   312  ASN312      0.2598
      8  O        134.4860   36.4240   49.7800 O.2   312  ASN312     -0.2718
      9  CB       136.3560   35.8120   52.0510 C.3   312  ASN312      0.1169
     10  CG       137.0030   37.0260   51.3730 C.2   312  ASN312      0.2627
     11  OD1      137.7680   36.8800   50.4240 O.2   312  ASN312     -0.2716
     12  ND2      136.7050   38.2240   51.8710 N.am  312  ASN312     -0.0877
     13  N        133.5120   34.5460   50.5540 N.am  313  GLY313     -0.1942
     14  CA       132.9280   34.1920   49.2700 C.3   313  GLY313      0.2014
     15  C        131.8510   35.0900   48.6670 C.2   313  GLY313      0.2639
     16  O        131.4450   36.1030   49.2440 O.2   313  GLY313     -0.2714
     17  N        131.3910   34.6940   47.4830 N.am  314  PHE314     -0.1959
     18  CA       130.3630   35.4170   46.7530 C.3   314  PHE314      0.1771
     19  C        129.1280   35.5600   47.6150 C.2   314  PHE314      0.2619
     20  O        128.6410   36.6720   47.8130 O.2   314  PHE314     -0.2715
     21  CB       130.0220   34.6780   45.4660 C.3   314  PHE314      0.0574
     22  CG       128.8890   35.2810   44.7010 C.ar  314  PHE314     -0.0200
     23  CD1      128.8990   36.6260   44.3620 C.ar  314  PHE314     -0.0042
     24  CD2      127.8090   34.4960   44.3000 C.ar  314  PHE314     -0.0042
     25  CE1      127.8440   37.1880   43.6270 C.ar  314  PHE314     -0.0003
     26  CE2      126.7500   35.0410   43.5670 C.ar  314  PHE314     -0.0003
     27  CZ       126.7680   36.3900   43.2300 C.ar  314  PHE314     -0.0000
     28  N        128.6100   34.4430   48.1270 N.am  315  ILE315     -0.1963
     29  CA       127.4420   34.5130   49.0000 C.3   315  ILE315      0.1727
     30  C        127.8820   35.1110   50.3180 C.2   315  ILE315      0.2616
     31  O        127.2480   36.0270   50.8290 O.2   315  ILE315     -0.2715
     32  CB       126.8400   33.1380   49.2990 C.3   315  ILE315      0.0290
     33  CG1      126.2480   32.5440   48.0250 C.3   315  ILE315      0.0022
     34  CG2      125.7710   33.2700   50.3790 C.3   315  ILE315      0.0023
     35  CD1      125.5730   31.2150   48.2430 C.3   315  ILE315      0.0001
     36  N        128.9840   34.5890   50.8440 N.am  316  GLY316     -0.1955
     37  CA       129.5200   35.0530   52.1060 C.3   316  GLY316      0.1869
     38  C        129.6450   36.5460   52.3680 C.2   316  GLY316      0.2309
     39  O        129.0580   37.0580   53.3330 O.2   316  GLY316     -0.2863
     40  N        135.1370   32.7580   59.1230 N.3   334  LEU334     -0.1231
     41  CA       136.4600   32.2320   58.8350 C.3   334  LEU334      0.1693
     42  C        136.5920   31.9890   57.3360 C.2   334  LEU334      0.2592
     43  O        135.6450   31.5620   56.6870 O.2   334  LEU334     -0.2718
     44  CB       136.6890   30.9160   59.5860 C.3   334  LEU334      0.0284
     45  CG       137.9080   30.0930   59.1550 C.3   334  LEU334      0.0019
     46  CD1      138.3960   29.2430   60.3190 C.3   334  LEU334      0.0001
     47  CD2      137.5480   29.2380   57.9470 C.3   334  LEU334      0.0001
     48  N        137.7680   32.2530   56.7840 N.am  335  ASP335     -0.1960
     49  CA       137.9760   32.0270   55.3730 C.3   335  ASP335      0.1840
     50  C        139.4540   32.1150   55.0420 C.2   335  ASP335      0.2622
     51  O        140.2370   32.6630   55.8060 O.2   335  ASP335     -0.2715
     52  CB       137.1920   33.0580   54.5670 C.3   335  ASP335      0.1450
     53  CG       137.0810   32.6890   53.0940 C.2   335  ASP335      0.3671
     54  OD1      138.1420   32.4250   52.4910 O.co2 335  ASP335     -0.2456
     55  OD2      135.9460   32.6730   52.5440 O.co2 335  ASP335     -0.2456
     56  N        139.8220   31.5450   53.8990 N.am  336  ILE336     -0.1963
     57  CA       141.1910   31.5390   53.4010 C.3   336  ILE336      0.1727
     58  C        141.5630   32.9360   52.9280 C.2   336  ILE336      0.2616
     59  O        142.6980   33.3800   53.0780 O.2   336  ILE336     -0.2715
     60  CB       141.3280   30.5990   52.1900 C.3   336  ILE336      0.0290
     61  CG1      141.2200   29.1500   52.6380 C.3   336  ILE336      0.0022
     62  CG2      142.6360   30.8630   51.4830 C.3   336  ILE336      0.0023
     63  CD1      142.1630   28.7830   53.7700 C.3   336  ILE336      0.0001
     64  N        140.5950   33.6090   52.3250 N.am  337  GLY337     -0.1955
     65  CA       140.8280   34.9410   51.8160 C.3   337  GLY337      0.1869
     66  C        140.0540   35.9560   52.6240 C.2   337  GLY337      0.2309
     67  O        139.2130   35.5750   53.4460 O.2   337  GLY337     -0.2863
     68  N        141.3740   31.3790   58.1670 N.3   355  GLY355     -0.1210
     69  CA       141.6180   29.9810   58.4480 C.3   355  GLY355      0.1956
     70  C        141.1810   29.0310   57.3590 C.2   355  GLY355      0.2612
     71  O        140.5650   29.4280   56.3680 O.2   355  GLY355     -0.2717
     72  N        141.4860   27.7590   57.5690 N.am  356  ASP356     -0.1959
     73  CA       141.1910   26.7010   56.6150 C.3   356  ASP356      0.1840
     74  C        140.2930   25.6510   57.2940 C.2   356  ASP356      0.2622
     75  O        140.6580   25.1390   58.3560 O.2   356  ASP356     -0.2715
     76  CB       142.5320   26.0930   56.2120 C.3   356  ASP356      0.1450
     77  CG       142.4240   25.1370   55.0740 C.2   356  ASP356      0.3671
     78  OD1      141.4650   24.3320   55.0520 O.co2 356  ASP356     -0.2456
     79  OD2      143.3240   25.1910   54.2150 O.co2 356  ASP356     -0.2456
     80  N        139.1410   25.3140   56.7090 N.am  357  ILE357     -0.1963
     81  CA       138.2760   24.3330   57.3680 C.3   357  ILE357      0.1727
     82  C        138.9370   23.0020   57.5630 C.2   357  ILE357      0.2616
     83  O        138.4700   22.1950   58.3630 O.2   357  ILE357     -0.2715
     84  CB       137.0020   23.9980   56.6110 C.3   357  ILE357      0.0290
     85  CG1      137.3030   23.9610   55.1290 C.3   357  ILE357      0.0022
     86  CG2      135.8890   24.9240   56.9950 C.3   357  ILE357      0.0023
     87  CD1      136.2180   23.2990   54.3560 C.3   357  ILE357      0.0001
     88  N        140.0020   22.7400   56.8220 N.am  358  SER358     -0.1950
     89  CA       140.6580   21.4560   56.9790 C.3   358  SER358      0.1924
     90  C        141.7870   21.5070   58.0060 C.2   358  SER358      0.2314
     91  O        142.3790   20.4840   58.3290 O.2   358  SER358     -0.2863
     92  CB       141.1710   20.9600   55.6240 C.3   358  SER358      0.2116
     93  OG       142.1270   21.8460   55.0710 O.3   358  SER358     -0.2180
     94  N        129.4420   27.7550   54.1150 N.3   377  LEU377     -0.1231
     95  CA       129.5500   28.1610   52.7200 C.3   377  LEU377      0.1693
     96  C        130.8510   27.8160   52.0110 C.2   377  LEU377      0.2592
     97  O        131.0600   28.2660   50.8850 O.2   377  LEU377     -0.2718
     98  CB       129.3070   29.6610   52.5940 C.3   377  LEU377      0.0284
     99  CG       128.0160   30.1540   53.2360 C.3   377  LEU377      0.0019
    100  CD1      127.7520   31.5830   52.7790 C.3   377  LEU377      0.0001
    101  CD2      126.8500   29.2510   52.8620 C.3   377  LEU377      0.0001
    102  N        131.7230   27.0350   52.6490 N.am  378  VAL378     -0.1966
    103  CA       132.9890   26.6720   52.0150 C.3   378  VAL378      0.1727
    104  C        132.7150   25.6410   50.9370 C.2   378  VAL378      0.2616
    105  O        132.0520   24.6340   51.2020 O.2   378  VAL378     -0.2715
    106  CB       133.9730   26.0390   53.0020 C.3   378  VAL378      0.0290
    107  CG1      135.2240   25.6280   52.2580 C.3   378  VAL378      0.0023
    108  CG2      134.3050   27.0070   54.1140 C.3   378  VAL378      0.0023
    109  N        133.2210   25.8820   49.7290 N.am  379  ALA379     -0.1963
    110  CA       133.0080   24.9390   48.6360 C.3   379  ALA379      0.1728
    111  C        133.7360   25.3030   47.3510 C.2   379  ALA379      0.2616
    112  O        134.4150   26.3230   47.2610 O.2   379  ALA379     -0.2715
    113  CB       131.5230   24.8210   48.3450 C.3   379  ALA379      0.0334
    114  N        133.5940   24.4260   46.3680 N.am  380  ILE380     -0.1963
    115  CA       134.1460   24.6220   45.0490 C.3   380  ILE380      0.1727
    116  C        132.9240   24.4070   44.1690 C.2   380  ILE380      0.2616
    117  O        132.4220   23.2900   44.0710 O.2   380  ILE380     -0.2715
    118  CB       135.1980   23.5850   44.7400 C.3   380  ILE380      0.0290
    119  CG1      136.4300   23.8730   45.5950 C.3   380  ILE380      0.0022
    120  CG2      135.5430   23.6130   43.2580 C.3   380  ILE380      0.0023
    121  CD1      137.4970   22.8080   45.5260 C.3   380  ILE380      0.0001
    122  N        132.4290   25.4760   43.5460 N.am  381  ALA381     -0.1977
    123  CA       131.2340   25.3780   42.7190 C.3   381  ALA381      0.1597
    124  C        131.4050   25.8230   41.2790 C.2   381  ALA381      0.2287
    125  O        130.4430   26.3110   40.6570 O.2   381  ALA381     -0.2864
    126  CB       130.1000   26.1590   43.3570 C.3   381  ALA381      0.0319
    127  N        136.3730   18.4660   49.6840 N.3   396  LEU396     -0.1245
    128  CA       136.0460   19.7700   50.2380 C.3   396  LEU396      0.1561
    129  C        134.5400   19.9590   50.3420 C.2   396  LEU396      0.2260
    130  O        134.0100   20.2020   51.4190 O.2   396  LEU396     -0.2867
    131  CB       136.6500   20.8480   49.3480 C.3   396  LEU396      0.0270
    132  CG       136.9240   22.2610   49.8650 C.3   396  LEU396      0.0019
    133  CD1      135.8660   23.2350   49.3590 C.3   396  LEU396      0.0001
    134  CD2      137.0130   22.2300   51.3720 C.3   396  LEU396      0.0001
    135  N        129.6460   16.5920   41.7150 N.3   451  TYR451     -0.1241
    136  CA       129.2440   17.7160   42.5630 C.3   451  TYR451      0.1605
    137  C        127.7640   17.5640   42.9570 C.2   451  TYR451      0.2264
    138  O        127.4170   17.5210   44.1480 O.2   451  TYR451     -0.2867
    139  CB       129.4350   19.0290   41.8080 C.3   451  TYR451      0.0534
    140  CG       128.9580   20.2310   42.5720 C.ar  451  TYR451     -0.0201
    141  CD1      129.6410   20.6800   43.6970 C.ar  451  TYR451     -0.0009
    142  CD2      127.8140   20.9140   42.1800 C.ar  451  TYR451     -0.0009
    143  CE1      129.1970   21.7790   44.4140 C.ar  451  TYR451      0.0417
    144  CE2      127.3570   22.0200   42.8900 C.ar  451  TYR451      0.0417
    145  CZ       128.0540   22.4470   44.0080 C.ar  451  TYR451      0.1957
    146  OH       127.6100   23.5310   44.7310 O.3   451  TYR451     -0.2866
    147  N        120.3300   27.8690   45.6340 N.3   478  PRO478     -0.2116
    148  CA       120.4370   29.0460   44.7740 C.3   478  PRO478      0.1372
    149  C        120.3400   28.6550   43.3010 C.2   478  PRO478      0.2244
    150  O        120.8190   27.5930   42.8870 O.2   478  PRO478     -0.2868
    151  CB       121.8140   29.6050   45.1320 C.3   478  PRO478      0.0268
    152  CG       121.9810   29.1900   46.5400 C.3   478  PRO478      0.0207
    153  CD       121.5080   27.7720   46.5110 C.3   478  PRO478      0.0892
    154  N        122.8000   32.5240   40.8880 N.3   481  TRP481     -0.1241
    155  CA       122.8980   33.8590   41.4660 C.3   481  TRP481      0.1605
    156  C        124.1190   34.5190   40.8370 C.2   481  TRP481      0.2264
    157  O        125.1380   33.8600   40.6260 O.2   481  TRP481     -0.2867
    158  CB       123.1670   33.7940   42.9670 C.3   481  TRP481      0.0550
    159  CG       122.0600   33.3000   43.8250 C.ar  481  TRP481      0.0003
    160  CD1      120.8660   32.7760   43.4220 C.ar  481  TRP481      0.0946
    161  CD2      122.0300   33.3140   45.2560 C.ar  481  TRP481      0.0152
    162  NE1      120.0900   32.4680   44.5140 N.ar  481  TRP481     -0.2442
    163  CE2      120.7800   32.7880   45.6540 C.ar  481  TRP481      0.0810
    164  CE3      122.9400   33.7240   46.2430 C.ar  481  TRP481      0.0012
    165  CZ2      120.4130   32.6610   47.0040 C.ar  481  TRP481      0.0191
    166  CZ3      122.5750   33.5990   47.5890 C.ar  481  TRP481      0.0001
    167  CH2      121.3240   33.0720   47.9520 C.ar  481  TRP481      0.0015
    168  N        131.2460   37.5190   41.9540 N.3   486  LEU486     -0.1231
    169  CA       130.9340   36.1320   41.6170 C.3   486  LEU486      0.1693
    170  C        132.2190   35.6610   40.9400 C.2   486  LEU486      0.2592
    171  O        132.3730   35.7950   39.7290 O.2   486  LEU486     -0.2718
    172  CB       129.7790   36.0540   40.6200 C.3   486  LEU486      0.0284
    173  CG       129.1030   34.7020   40.3690 C.3   486  LEU486      0.0019
    174  CD1      128.4170   34.7670   39.0200 C.3   486  LEU486      0.0001
    175  CD2      130.1050   33.5710   40.3680 C.3   486  LEU486      0.0001
    176  N        133.1430   35.1320   41.7360 N.am  487  ASP487     -0.1974
    177  CA       134.4370   34.6650   41.2460 C.3   487  ASP487      0.1709
    178  C        135.2740   35.8860   40.9160 C.2   487  ASP487      0.2293
    179  O        134.9710   36.9890   41.3790 O.2   487  ASP487     -0.2864
    180  CB       134.2550   33.7980   40.0060 C.3   487  ASP487      0.1436
    181  CG       133.4590   32.5380   40.2940 C.2   487  ASP487      0.3671
    182  OD1      132.7300   32.0630   39.3930 O.co2 487  ASP487     -0.2456
    183  OD2      133.5710   32.0170   41.4270 O.co2 487  ASP487     -0.2456
    184  N        132.1870   30.9880   37.0810 N.3   498  ARG498     -0.1245
    185  CA       130.9380   30.7600   36.4100 C.3   498  ARG498      0.1563
    186  C        130.8350   31.5620   35.1140 C.2   498  ARG498      0.2260
    187  O        131.6090   32.4920   34.8850 O.2   498  ARG498     -0.2867
    188  CB       129.7990   31.0000   37.3950 C.3   498  ARG498      0.0307
    189  CG       129.3920   29.6520   37.9710 C.3   498  ARG498      0.0489
    190  CD       129.2340   29.6000   39.4570 C.3   498  ARG498      0.2205
    191  NE       130.3630   30.1830   40.1540 N.pl3 498  ARG498     -0.0865
    192  CZ       130.5110   30.1050   41.4650 C.cat 498  ARG498      0.5346
    193  NH1      129.6120   29.4590   42.1770 N.pl3 498  ARG498      0.1354
    194  NH2      131.5230   30.7000   42.0630 N.pl3 498  ARG498      0.1354
@<TRIPOS>BOND
     1   187   186    2
     2   186   185    1
     3   185   184    1
     4   185   188    1
     5   188   189    1
     6   189   190    1
     7   174   173    1
     8   182   181   ar
     9   190   191    1
    10   171   170    2
    11   180   181    1
    12   180   177    1
    13   191   192    2
    14   181   183   ar
    15   175   173    1
    16   173   172    1
    17   172   169    1
    18   157   156    2
    19   125   124    2
    20   156   155    1
    21   154   155    1
    22   178   177    1
    23   178   179    2
    24   170   169    1
    25   170   176   am
    26   177   176    1
    27   124   123    1
    28   192   194    1
    29   192   193    1
    30   155   158    1
    31   169   168    1
    32   135   136    1
    33   139   136    1
    34   139   140    1
    35   142   140   ar
    36   142   144   ar
    37   136   137    1
    38   140   141   ar
    39   123   126    1
    40   123   122    1
    41   150   149    2
    42   144   145   ar
    43   137   138    2
    44   158   159    1
    45    27    26   ar
    46    27    25   ar
    47   120   118    1
    48   149   148    1
    49   160   159   ar
    50   160   162   ar
    51   122   116   am
    52    26    24   ar
    53    25    23   ar
    54   141   143   ar
    55   159   161   ar
    56   145   143   ar
    57   145   146    1
    58   117   116    2
    59   116   115    1
    60    24    22   ar
    61    23    22   ar
    62   162   163   ar
    63    22    21    1
    64   118   115    1
    65   118   119    1
    66   148   151    1
    67   148   147    1
    68   115   114    1
    69   151   152    1
    70   161   163   ar
    71   161   164   ar
    72    21    18    1
    73   121   119    1
    74   147   153    1
    75   163   165   ar
    76   164   166   ar
    77   114   111   am
    78   153   152    1
    79    18    17    1
    80    18    19    1
    81   165   167   ar
    82   112   111    2
    83   111   110    1
    84    17    15   am
    85   166   167   ar
    86    19    20    2
    87    19    28   am
    88    33    35    1
    89    33    32    1
    90    28    29    1
    91   113   110    1
    92   110   109    1
    93    15    16    2
    94    15    14    1
    95    29    32    1
    96    29    30    1
    97    14    13    1
    98    32    34    1
    99   131   132    1
   100   131   128    1
   101   133   132    1
   102   127   128    1
   103   109   104   am
   104     8     7    2
   105   132   134    1
   106   128   129    1
   107    30    31    2
   108    30    36   am
   109   129   130    2
   110    11    10    2
   111    13     7   am
   112     7     6    1
   113    36    37    1
   114    97    96    2
   115   104   105    2
   116   104   103    1
   117    10    12   am
   118    10     9    1
   119    62    60    1
   120    65    64    1
   121    65    66    1
   122    96   102   am
   123    96    95    1
   124   103   102    1
   125   103   106    1
   126     9     6    1
   127     6     5    1
   128    37    38    1
   129    60    61    1
   130    60    57    1
   131   107   106    1
   132    64    58   am
   133    38    39    2
   134    54    53   ar
   135    55    53   ar
   136     4     3    2
   137    98    95    1
   138    98    99    1
   139    66    67    2
   140    61    63    1
   141    95    94    1
   142   100    99    1
   143   101    99    1
   144    58    59    2
   145    58    57    1
   146   106   108    1
   147    53    52    1
   148    57    56    1
   149     3     2    1
   150     2     1    1
   151    56    50   am
   152    79    77   ar
   153    87    85    1
   154    52    49    1
   155    50    49    1
   156    50    51    2
   157    78    77   ar
   158    93    92    1
   159    77    76    1
   160    85    84    1
   161    49    48    1
   162    92    89    1
   163    76    73    1
   164    71    70    2
   165    84    86    1
   166    84    81    1
   167    73    74    1
   168    73    72    1
   169    43    42    2
   170    80    74   am
   171    80    81    1
   172    48    42   am
   173    88    89    1
   174    88    82   am
   175    89    90    1
   176    74    75    2
   177    42    41    1
   178    70    72   am
   179    70    69    1
   180    81    82    1
   181    82    83    2
   182    47    45    1
   183    90    91    2
   184    68    69    1
   185    41    40    1
   186    41    44    1
   187    45    44    1
   188    45    46    1
