@<TRIPOS>MOLECULE
tmp/1z7nF00.pdb
 110 107 0 0 0
SMALL
GASTEIGER

@<TRIPOS>ATOM
      1  N        105.6810   13.7900    4.4500 N.3   116  LYS116     -0.1245
      2  CA       106.2910   13.1310    3.3040 C.3   116  LYS116      0.1561
      3  C        105.7740   13.8200    2.0430 C.2   116  LYS116      0.2260
      4  O        106.2700   13.5910    0.9370 O.2   116  LYS116     -0.2867
      5  CB       105.9110   11.6480    3.2810 C.3   116  LYS116      0.0271
      6  CG       106.5280   10.8790    2.1240 C.3   116  LYS116      0.0035
      7  CD       105.9270    9.4880    1.9590 C.3   116  LYS116      0.0206
      8  CE       106.4750    8.8030    0.7060 C.3   116  LYS116      0.1093
      9  NZ       105.8250    7.4880    0.4200 N.3   116  LYS116     -0.1314
     10  N        110.9520   11.1400    4.6950 N.3   138  GLU138     -0.1231
     11  CA       110.6570   10.1480    3.6910 C.3   138  GLU138      0.1699
     12  C        110.1110    8.8850    4.3400 C.2   138  GLU138      0.2593
     13  O        109.4110    8.1110    3.6950 O.2   138  GLU138     -0.2718
     14  CB       111.9220    9.8120    2.9050 C.3   138  GLU138      0.0402
     15  CG       112.4970   10.9620    2.1210 C.3   138  GLU138      0.1161
     16  CD       113.5740   10.5210    1.1620 C.2   138  GLU138      0.3649
     17  OE1      114.1230   11.3910    0.4690 O.co2 138  GLU138     -0.2457
     18  OE2      113.8710    9.3120    1.0850 O.co2 138  GLU138     -0.2457
     19  N        110.4120    8.6960    5.6250 N.am  139  GLY139     -0.1942
     20  CA       109.9890    7.4940    6.3280 C.3   139  GLY139      0.2014
     21  C        108.6890    7.4230    7.1120 C.2   139  GLY139      0.2640
     22  O        107.6000    7.3620    6.5500 O.2   139  GLY139     -0.2714
     23  N        108.8160    7.4050    8.4300 N.am  140  SER140     -0.1935
     24  CA       107.6710    7.2830    9.3170 C.3   140  SER140      0.2055
     25  C        107.4120    8.6280    9.9460 C.2   140  SER140      0.2643
     26  O        107.9480    8.9280   11.0100 O.2   140  SER140     -0.2714
     27  CB       107.9960    6.2670   10.4040 C.3   140  SER140      0.2130
     28  OG       108.7350    5.1820    9.8720 O.3   140  SER140     -0.2179
     29  N        106.5700    9.4290    9.3070 N.am  141  VAL141     -0.1963
     30  CA       106.3050   10.7730    9.7920 C.3   141  VAL141      0.1727
     31  C        105.8210   10.8990   11.2260 C.2   141  VAL141      0.2616
     32  O        105.7820   12.0070   11.7560 O.2   141  VAL141     -0.2715
     33  CB       105.3240   11.5220    8.8680 C.3   141  VAL141      0.0290
     34  CG1      105.4740   13.0260    9.0660 C.3   141  VAL141      0.0023
     35  CG2      105.6030   11.1680    7.4260 C.3   141  VAL141      0.0023
     36  N        105.4710    9.7890   11.8720 N.am  142  GLU142     -0.1977
     37  CA       105.0020    9.8580   13.2590 C.3   142  GLU142      0.1602
     38  C        106.1010   10.3150   14.2100 C.2   142  GLU142      0.2287
     39  O        105.8140   10.9120   15.2500 O.2   142  GLU142     -0.2864
     40  CB       104.4930    8.5080   13.7510 C.3   142  GLU142      0.0415
     41  CG       103.4870    7.8500   12.8550 C.3   142  GLU142      0.1163
     42  CD       104.1280    6.8680   11.8970 C.2   142  GLU142      0.3649
     43  OE1      104.8630    5.9710   12.3650 O.co2 142  GLU142     -0.2457
     44  OE2      103.8880    6.9880   10.6770 O.co2 142  GLU142     -0.2457
     45  N         99.9820   13.6390    7.0570 N.3   155  ASP155     -0.1225
     46  CA       100.2120   12.3340    6.4750 C.3   155  ASP155      0.1805
     47  C         98.9040   11.7420    6.0120 C.2   155  ASP155      0.2598
     48  O         97.8670   12.3810    6.1270 O.2   155  ASP155     -0.2718
     49  CB       100.8460   11.4180    7.5080 C.3   155  ASP155      0.1424
     50  CG       101.6100   10.3010    6.8730 C.2   155  ASP155      0.3668
     51  OD1      101.9310    9.3190    7.5790 O.co2 155  ASP155     -0.2456
     52  OD2      101.8930   10.4210    5.6610 O.co2 155  ASP155     -0.2456
     53  N         98.9550   10.5320    5.4640 N.am  156  ILE156     -0.1966
     54  CA        97.7380    9.8560    5.0260 C.3   156  ILE156      0.1727
     55  C         97.3430    8.8920    6.1250 C.2   156  ILE156      0.2616
     56  O         98.1310    8.0380    6.5440 O.2   156  ILE156     -0.2715
     57  CB        97.9180    9.0390    3.7360 C.3   156  ILE156      0.0290
     58  CG1       99.2060    8.2180    3.8140 C.3   156  ILE156      0.0022
     59  CG2       97.8780    9.9500    2.5430 C.3   156  ILE156      0.0023
     60  CD1       99.4420    7.3220    2.6130 C.3   156  ILE156      0.0001
     61  N         96.1140    9.0520    6.5920 N.am  157  VAL157     -0.1963
     62  CA        95.5710    8.2210    7.6480 C.3   157  VAL157      0.1727
     63  C         94.5200    7.2960    7.0520 C.2   157  VAL157      0.2616
     64  O         93.5010    7.7520    6.5270 O.2   157  VAL157     -0.2715
     65  CB        94.9090    9.0840    8.7330 C.3   157  VAL157      0.0290
     66  CG1       94.5270    8.2200    9.9200 C.3   157  VAL157      0.0023
     67  CG2       95.8460   10.1980    9.1480 C.3   157  VAL157      0.0023
     68  N         94.7710    5.9960    7.1260 N.am  158  GLU158     -0.1963
     69  CA        93.8330    5.0200    6.5950 C.3   158  GLU158      0.1733
     70  C         92.9450    4.4740    7.7160 C.2   158  GLU158      0.2617
     71  O         91.7450    4.7520    7.7520 O.2   158  GLU158     -0.2715
     72  CB        94.5980    3.8880    5.9060 C.3   158  GLU158      0.0429
     73  CG        93.7310    2.7740    5.3700 C.3   158  GLU158      0.1163
     74  CD        94.5390    1.7290    4.6300 C.2   158  GLU158      0.3649
     75  OE1       95.5850    1.3040    5.1670 O.co2 158  GLU158     -0.2457
     76  OE2       94.1260    1.3280    3.5200 O.co2 158  GLU158     -0.2457
     77  N         93.5360    3.7140    8.6360 N.am  159  THR159     -0.1937
     78  CA        92.7850    3.1420    9.7530 C.3   159  THR159      0.2028
     79  C         92.9390    3.9960   11.0060 C.2   159  THR159      0.2643
     80  O         92.0350    4.0630   11.8390 O.2   159  THR159     -0.2714
     81  CB        93.2730    1.7230   10.1030 C.3   159  THR159      0.1808
     82  OG1       94.6030    1.7950   10.6310 O.3   159  THR159     -0.2208
     83  CG2       93.2710    0.8310    8.8700 C.3   159  THR159      0.0379
     84  N         94.0920    4.6450   11.1320 N.am  160  GLY160     -0.1939
     85  CA        94.3570    5.4710   12.2940 C.3   160  GLY160      0.2014
     86  C         95.1090    4.6640   13.3310 C.2   160  GLY160      0.2639
     87  O         95.3500    5.1350   14.4430 O.2   160  GLY160     -0.2714
     88  N         95.4860    3.4430   12.9560 N.am  161  ASN161     -0.1958
     89  CA        96.2040    2.5530   13.8570 C.3   161  ASN161      0.1819
     90  C         97.6300    3.0020   14.1310 C.2   161  ASN161      0.2622
     91  O         98.2110    2.6710   15.1720 O.2   161  ASN161     -0.2715
     92  CB        96.2030    1.1240   13.3090 C.3   161  ASN161      0.1195
     93  CG        94.8930    0.4100   13.5680 C.2   161  ASN161      0.2630
     94  OD1       94.4490    0.3060   14.7110 O.2   161  ASN161     -0.2716
     95  ND2       94.2650   -0.0820   12.5090 N.am  161  ASN161     -0.0877
     96  N         98.1870    3.7660   13.2030 N.am  162  THR162     -0.1937
     97  CA        99.5460    4.2520   13.3560 C.3   162  THR162      0.2028
     98  C         99.6150    5.4240   14.3090 C.2   162  THR162      0.2642
     99  O        100.5230    5.5130   15.1260 O.2   162  THR162     -0.2714
    100  CB       100.1230    4.6830   12.0140 C.3   162  THR162      0.1808
    101  OG1      100.1690    3.5510   11.1440 O.3   162  THR162     -0.2208
    102  CG2      101.5180    5.2160   12.1810 C.3   162  THR162      0.0379
    103  N         98.6470    6.3210   14.2120 N.am  163  LEU163     -0.1977
    104  CA        98.6360    7.4870   15.0690 C.3   163  LEU163      0.1596
    105  C         98.3520    7.1420   16.5320 C.2   163  LEU163      0.2287
    106  O         99.1400    7.4740   17.4260 O.2   163  LEU163     -0.2864
    107  CB        97.6080    8.4900   14.5510 C.3   163  LEU163      0.0297
    108  CG        97.6810    8.7690   13.0490 C.3   163  LEU163      0.0022
    109  CD1       96.7670    9.9350   12.7440 C.3   163  LEU163      0.0001
    110  CD2       99.1090    9.0850   12.6150 C.3   163  LEU163      0.0001
@<TRIPOS>BOND
     1     9     8    1
     2    17    16   ar
     3     8     7    1
     4     4     3    2
     5    18    16   ar
     6    16    15    1
     7     7     6    1
     8     3     2    1
     9    15    14    1
    10     6     5    1
    11    59    57    1
    12    60    58    1
    13    14    11    1
    14     5     2    1
    15     2     1    1
    16    76    74   ar
    17    11    12    1
    18    11    10    1
    19    13    12    2
    20    57    58    1
    21    57    54    1
    22    12    19   am
    23    74    75   ar
    24    74    73    1
    25    54    53    1
    26    54    55    1
    27    73    72    1
    28    53    47   am
    29    19    20    1
    30    52    50   ar
    31    72    69    1
    32    47    48    2
    33    47    46    1
    34    55    56    2
    35    55    61   am
    36    20    21    1
    37    46    45    1
    38    46    49    1
    39    64    63    2
    40    22    21    2
    41    61    62    1
    42    69    68    1
    43    69    70    1
    44    50    49    1
    45    50    51   ar
    46    63    68   am
    47    63    62    1
    48    21    23   am
    49    35    33    1
    50    62    65    1
    51    70    71    2
    52    70    77   am
    53    23    24    1
    54    77    78    1
    55    65    67    1
    56    65    66    1
    57    33    34    1
    58    33    30    1
    59    83    81    1
    60    29    30    1
    61    29    25   am
    62    24    25    1
    63    24    27    1
    64    78    81    1
    65    78    79    1
    66    30    31    1
    67    28    27    1
    68    25    26    2
    69    81    82    1
    70    44    42   ar
    71    79    84   am
    72    79    80    2
    73    84    85    1
    74   101   100    1
    75    31    32    2
    76    31    36   am
    77    36    37    1
    78    42    43   ar
    79    42    41    1
    80   100   102    1
    81   100    97    1
    82    85    86    1
    83    95    93   am
    84   110   108    1
    85   109   108    1
    86    41    40    1
    87    88    86   am
    88    88    89    1
    89   108   107    1
    90    96    97    1
    91    96    90   am
    92    37    40    1
    93    37    38    1
    94    92    93    1
    95    92    89    1
    96    86    87    2
    97    97    98    1
    98    93    94    2
    99    89    90    1
   100    90    91    2
   101    38    39    2
   102   103    98   am
   103   103   104    1
   104    98    99    2
   105   107   104    1
   106   104   105    1
   107   105   106    2
