@<TRIPOS>MOLECULE
tmp/1z7sA00.pdb
 188 177 0 0 0
SMALL
GASTEIGER

@<TRIPOS>ATOM
      1  N         42.7660    0.7450  129.4340 N.3    90  ILE90      -0.1231
      2  CA        42.5830    1.5000  128.1980 C.3    90  ILE90       0.1692
      3  C         41.5550    2.6100  128.3290 C.2    90  ILE90       0.2593
      4  O         40.3930    2.3530  128.6410 O.2    90  ILE90      -0.2718
      5  CB        42.1250    0.5940  127.0470 C.3    90  ILE90       0.0266
      6  CG1       42.9210   -0.7170  127.0310 C.3    90  ILE90       0.0019
      7  CG2       42.3070    1.3300  125.7440 C.3    90  ILE90       0.0020
      8  CD1       44.3960   -0.5550  126.7570 C.3    90  ILE90       0.0001
      9  N         41.9940    3.8400  128.0830 N.am   91  THR91      -0.1939
     10  CA        41.1220    5.0090  128.1490 C.3    91  THR91       0.2028
     11  C         41.9250    6.2580  127.8520 C.2    91  THR91       0.2642
     12  O         43.1510    6.2350  127.8380 O.2    91  THR91      -0.2714
     13  CB        40.4720    5.1910  129.5300 C.3    91  THR91       0.1808
     14  OG1       39.5270    6.2670  129.4780 O.3    91  THR91      -0.2208
     15  CG2       41.5210    5.5320  130.5600 C.3    91  THR91       0.0379
     16  N         41.2190    7.3540  127.6350 N.am   92  TYR92      -0.1973
     17  CA        41.8600    8.6160  127.3170 C.3    92  TYR92       0.1639
     18  C         41.6920    9.6310  128.4410 C.2    92  TYR92       0.2290
     19  O         42.0640   10.7990  128.2900 O.2    92  TYR92      -0.2864
     20  CB        41.2640    9.1660  126.0130 C.3    92  TYR92       0.0560
     21  CG        39.7610    9.3380  126.0620 C.ar   92  TYR92      -0.0198
     22  CD1       39.1930   10.5390  126.4780 C.ar   92  TYR92      -0.0009
     23  CD2       38.9110    8.2770  125.7630 C.ar   92  TYR92      -0.0009
     24  CE1       37.8170   10.6780  126.6020 C.ar   92  TYR92       0.0417
     25  CE2       37.5320    8.4050  125.8850 C.ar   92  TYR92       0.0417
     26  CZ        36.9900    9.6070  126.3080 C.ar   92  TYR92       0.1957
     27  OH        35.6240    9.7320  126.4620 O.3    92  TYR92      -0.2866
     28  N         37.9200   15.4520  122.2310 N.3   102  LEU102     -0.1245
     29  CA        36.8760   14.4680  121.9850 C.3   102  LEU102      0.1561
     30  C         35.6100   14.9010  122.7200 C.2   102  LEU102      0.2260
     31  O         34.4900   14.7980  122.2070 O.2   102  LEU102     -0.2867
     32  CB        37.2920   13.1220  122.5380 C.3   102  LEU102      0.0270
     33  CG        38.4110   12.3920  121.8360 C.3   102  LEU102      0.0019
     34  CD1       38.9450   11.3020  122.7460 C.3   102  LEU102      0.0001
     35  CD2       37.8770   11.8090  120.5520 C.3   102  LEU102      0.0001
     36  N         35.3680    6.1120  115.2170 N.3   110  PHE110     -0.1241
     37  CA        36.6560    6.1320  114.5330 C.3   110  PHE110      0.1605
     38  C         37.5380    4.8930  114.6750 C.2   110  PHE110      0.2264
     39  O         37.2430    3.9420  115.4120 O.2   110  PHE110     -0.2867
     40  CB        37.4580    7.3550  115.0020 C.3   110  PHE110      0.0534
     41  CG        37.6740    7.4030  116.5010 C.ar  110  PHE110     -0.0203
     42  CD1       38.5780    6.5370  117.1220 C.ar  110  PHE110     -0.0042
     43  CD2       36.9310    8.2790  117.3010 C.ar  110  PHE110     -0.0042
     44  CE1       38.7320    6.5400  118.5120 C.ar  110  PHE110     -0.0003
     45  CE2       37.0790    8.2860  118.6930 C.ar  110  PHE110     -0.0003
     46  CZ        37.9780    7.4170  119.2950 C.ar  110  PHE110     -0.0000
     47  N         41.5870    3.6870  115.4060 N.3   112  LEU112     -0.1245
     48  CA        42.6050    4.2240  116.2890 C.3   112  LEU112      0.1561
     49  C         44.0350    3.8480  115.9560 C.2   112  LEU112      0.2260
     50  O         44.3240    2.7010  115.6020 O.2   112  LEU112     -0.2867
     51  CB        42.2830    3.7880  117.7160 C.3   112  LEU112      0.0270
     52  CG        42.9850    4.4990  118.8640 C.3   112  LEU112      0.0019
     53  CD1       42.8560    6.0040  118.6850 C.3   112  LEU112      0.0001
     54  CD2       42.3640    4.0420  120.1750 C.3   112  LEU112      0.0001
     55  N         47.5800    3.5150  117.6140 N.3   114  MET114     -0.1245
     56  CA        48.3690    3.4190  118.8370 C.3   114  MET114      0.1570
     57  C         49.8360    3.5600  118.4660 C.2   114  MET114      0.2261
     58  O         50.3000    2.9740  117.4850 O.2   114  MET114     -0.2867
     59  CB        48.1910    2.0490  119.4940 C.3   114  MET114      0.0387
     60  CG        46.7690    1.6490  119.8130 C.3   114  MET114      0.0595
     61  SD        46.2310    2.2060  121.4220 S.3   114  MET114     -0.1393
     62  CE        45.9830    3.9260  121.0610 C.3   114  MET114      0.0692
     63  N         53.7030    3.7560  120.5830 N.3   116  PHE116     -0.1241
     64  CA        54.3450    3.6420  121.8810 C.3   116  PHE116      0.1605
     65  C         55.7780    4.1450  121.8870 C.2   116  PHE116      0.2264
     66  O         56.5330    3.8790  120.9460 O.2   116  PHE116     -0.2867
     67  CB        54.2990    2.1900  122.3230 C.3   116  PHE116      0.0534
     68  CG        52.9150    1.6620  122.4660 C.ar  116  PHE116     -0.0203
     69  CD1       52.0850    2.1230  123.4770 C.ar  116  PHE116     -0.0042
     70  CD2       52.4310    0.7100  121.5900 C.ar  116  PHE116     -0.0042
     71  CE1       50.7850    1.6360  123.6150 C.ar  116  PHE116     -0.0003
     72  CE2       51.1320    0.2180  121.7200 C.ar  116  PHE116     -0.0003
     73  CZ        50.3090    0.6830  122.7370 C.ar  116  PHE116     -0.0000
     74  N         53.9190   -5.6050  124.7460 N.3   137  ILE137     -0.1245
     75  CA        52.6680   -4.9520  125.0940 C.3   137  ILE137      0.1561
     76  C         51.6090   -5.9550  124.6900 C.2   137  ILE137      0.2260
     77  O         51.5150   -6.3210  123.5200 O.2   137  ILE137     -0.2867
     78  CB        52.4300   -3.6610  124.3090 C.3   137  ILE137      0.0252
     79  CG1       53.6400   -2.7460  124.4340 C.3   137  ILE137      0.0019
     80  CG2       51.1880   -2.9630  124.8480 C.3   137  ILE137      0.0019
     81  CD1       53.4880   -1.4460  123.7050 C.3   137  ILE137      0.0001
     82  N         47.5560   -6.8380  124.6330 N.3   139  TYR139     -0.1241
     83  CA        46.2150   -6.3030  124.7830 C.3   139  TYR139      0.1605
     84  C         45.3200   -7.3940  125.3370 C.2   139  TYR139      0.2264
     85  O         45.1220   -8.4280  124.7050 O.2   139  TYR139     -0.2867
     86  CB        45.6940   -5.8100  123.4340 C.3   139  TYR139      0.0534
     87  CG        44.2510   -5.3810  123.4660 C.ar  139  TYR139     -0.0201
     88  CD1       43.7870   -4.5080  124.4410 C.ar  139  TYR139     -0.0009
     89  CD2       43.3430   -5.8630  122.5290 C.ar  139  TYR139     -0.0009
     90  CE1       42.4510   -4.1310  124.4840 C.ar  139  TYR139      0.0417
     91  CE2       42.0080   -5.4910  122.5620 C.ar  139  TYR139      0.0417
     92  CZ        41.5690   -4.6290  123.5410 C.ar  139  TYR139      0.1957
     93  OH        40.2440   -4.2780  123.5870 O.3   139  TYR139     -0.2866
     94  N         46.4130   -9.8400  120.9260 N.3   161  PRO161     -0.2116
     95  CA        47.3700   -9.1440  120.0660 C.3   161  PRO161      0.1372
     96  C         48.5040   -8.5480  120.9000 C.2   161  PRO161      0.2244
     97  O         48.2520   -7.7670  121.8160 O.2   161  PRO161     -0.2868
     98  CB        46.5090   -8.0750  119.3970 C.3   161  PRO161      0.0268
     99  CG        45.4500   -7.8060  120.4260 C.3   161  PRO161      0.0207
    100  CD        45.0920   -9.1960  120.8650 C.3   161  PRO161      0.0892
    101  N         52.5980   -6.7390  120.9290 N.3   163  ILE163     -0.1245
    102  CA        53.7140   -6.1150  120.2210 C.3   163  ILE163      0.1561
    103  C         54.9840   -6.5050  120.9590 C.2   163  ILE163      0.2260
    104  O         54.9610   -6.7530  122.1610 O.2   163  ILE163     -0.2867
    105  CB        53.6580   -4.5770  120.2530 C.3   163  ILE163      0.0252
    106  CG1       52.2740   -4.0820  119.8370 C.3   163  ILE163      0.0019
    107  CG2       54.7310   -4.0090  119.3250 C.3   163  ILE163      0.0019
    108  CD1       51.9630   -4.2800  118.3760 C.3   163  ILE163      0.0001
    109  N         50.5480    0.7350  115.8240 N.3   174  MET174     -0.1245
    110  CA        49.6090   -0.1900  115.2010 C.3   174  MET174      0.1570
    111  C         48.2210    0.4230  115.1070 C.2   174  MET174      0.2261
    112  O         47.9380    1.4280  115.7570 O.2   174  MET174     -0.2867
    113  CB        49.5530   -1.4570  116.0310 C.3   174  MET174      0.0387
    114  CG        49.8300   -1.1590  117.4870 C.3   174  MET174      0.0595
    115  SD        49.0060   -2.2650  118.6190 S.3   174  MET174     -0.1393
    116  CE        47.2720   -1.7570  118.3570 C.3   174  MET174      0.0692
    117  N         43.8520    0.1370  115.1300 N.3   176  ILE176     -0.1245
    118  CA        42.7310   -0.5600  115.7220 C.3   176  ILE176      0.1561
    119  C         41.4250   -0.0790  115.1210 C.2   176  ILE176      0.2260
    120  O         41.1760    1.1200  115.0160 O.2   176  ILE176     -0.2867
    121  CB        42.6640   -0.3330  117.2320 C.3   176  ILE176      0.0252
    122  CG1       44.0180   -0.6410  117.8570 C.3   176  ILE176      0.0019
    123  CG2       41.6020   -1.2380  117.8470 C.3   176  ILE176      0.0019
    124  CD1       44.1090   -0.2090  119.2910 C.3   176  ILE176      0.0001
    125  N         35.9970   -0.5380  117.4840 N.3   179  VAL179     -0.1245
    126  CA        35.5670   -1.7420  118.1670 C.3   179  VAL179      0.1561
    127  C         34.3400   -1.5980  119.0500 C.2   179  VAL179      0.2260
    128  O         33.8440   -2.5910  119.5730 O.2   179  VAL179     -0.2867
    129  CB        36.7170   -2.2980  119.0090 C.3   179  VAL179      0.0252
    130  CG1       37.8550   -2.7720  118.1010 C.3   179  VAL179      0.0019
    131  CG2       37.2180   -1.2150  119.9410 C.3   179  VAL179      0.0019
    132  N         30.7890    5.5030  119.4810 N.3   185  TYR185     -0.1241
    133  CA        31.4200    5.5800  120.7950 C.3   185  TYR185      0.1605
    134  C         30.6060    6.6130  121.5700 C.2   185  TYR185      0.2264
    135  O         30.2880    7.6930  121.0470 O.2   185  TYR185     -0.2867
    136  CB        32.8750    6.0600  120.6900 C.3   185  TYR185      0.0534
    137  CG        33.8850    4.9940  120.3050 C.ar  185  TYR185     -0.0201
    138  CD1       35.0860    5.3380  119.6760 C.ar  185  TYR185     -0.0009
    139  CD2       33.6420    3.6440  120.5590 C.ar  185  TYR185     -0.0009
    140  CE1       36.0130    4.3600  119.3050 C.ar  185  TYR185      0.0417
    141  CE2       34.5670    2.6600  120.1930 C.ar  185  TYR185      0.0417
    142  CZ        35.7430    3.0250  119.5640 C.ar  185  TYR185      0.1957
    143  OH        36.6320    2.0530  119.1690 O.3   185  TYR185     -0.2866
    144  N         30.5270    9.2410  124.4660 N.3   187  HIS187     -0.1241
    145  CA        31.4700   10.0400  125.2540 C.3   187  HIS187      0.1621
    146  C         30.9470   10.4120  126.6410 C.2   187  HIS187      0.2264
    147  O         31.7240   10.6870  127.5550 O.2   187  HIS187     -0.2867
    148  CB        31.8340   11.3130  124.4920 C.3   187  HIS187      0.0745
    149  CG        32.8770   11.1080  123.4400 C.ar  187  HIS187      0.0817
    150  ND1       33.2760   12.1140  122.5840 N.ar  187  HIS187     -0.2268
    151  CD2       33.6530   10.0360  123.1510 C.ar  187  HIS187      0.1154
    152  CE1       34.2590   11.6710  121.8180 C.ar  187  HIS187      0.1986
    153  NE2       34.5080   10.4140  122.1430 N.ar  187  HIS187     -0.2212
    154  N         31.3600    1.5010  130.1750 N.3   215  ASN215     -0.1240
    155  CA        32.4160    1.3860  129.1860 C.3   215  ASN215      0.1653
    156  C         33.5330    0.4700  129.6680 C.2   215  ASN215      0.2266
    157  O         33.8330    0.4240  130.8590 O.2   215  ASN215     -0.2867
    158  CB        32.9750    2.7760  128.8700 C.3   215  ASN215      0.1155
    159  CG        33.0370    3.0500  127.3760 C.2   215  ASN215      0.2627
    160  OD1       32.5110    2.2710  126.5640 O.2   215  ASN215     -0.2716
    161  ND2       33.6700    4.1650  127.0000 N.am  215  ASN215     -0.0877
    162  N         37.2160   -1.3210  127.6400 N.3   217  PHE217     -0.1241
    163  CA        37.9730   -1.6970  126.4540 C.3   217  PHE217      0.1605
    164  C         39.1010   -2.6640  126.7410 C.2   217  PHE217      0.2264
    165  O         39.8900   -2.9730  125.8520 O.2   217  PHE217     -0.2867
    166  CB        38.5390   -0.4490  125.7820 C.3   217  PHE217      0.0534
    167  CG        37.4850    0.4920  125.2830 C.ar  217  PHE217     -0.0203
    168  CD1       37.7890    1.8190  125.0280 C.ar  217  PHE217     -0.0042
    169  CD2       36.1840    0.0520  125.0690 C.ar  217  PHE217     -0.0042
    170  CE1       36.8190    2.6940  124.5700 C.ar  217  PHE217     -0.0003
    171  CE2       35.2050    0.9180  124.6110 C.ar  217  PHE217     -0.0003
    172  CZ        35.5250    2.2450  124.3620 C.ar  217  PHE217     -0.0000
    173  N         46.1000   -2.9870  128.8230 N.3   220  LEU220     -0.1245
    174  CA        47.3940   -3.2150  128.2060 C.3   220  LEU220      0.1561
    175  C         48.3410   -3.7350  129.2890 C.2   220  LEU220      0.2260
    176  O         48.6470   -3.0250  130.2450 O.2   220  LEU220     -0.2867
    177  CB        47.9540   -1.9150  127.6230 C.3   220  LEU220      0.0270
    178  CG        47.3940   -1.4220  126.2950 C.3   220  LEU220      0.0019
    179  CD1       48.1650   -0.2010  125.8130 C.3   220  LEU220      0.0001
    180  CD2       47.5070   -2.5390  125.2870 C.3   220  LEU220      0.0001
    181  N         47.4930    8.1250  121.3470 N.3   241  MET241     -0.1245
    182  CA        46.2910    7.8110  120.5730 C.3   241  MET241      0.1570
    183  C         45.9550    8.8920  119.5560 C.2   241  MET241      0.2261
    184  O         45.9780   10.0810  119.8730 O.2   241  MET241     -0.2867
    185  CB        45.0700    7.6310  121.4810 C.3   241  MET241      0.0387
    186  CG        45.2040    6.5480  122.5200 C.3   241  MET241      0.0595
    187  SD        43.6220    6.0430  123.2390 S.3   241  MET241     -0.1393
    188  CE        42.8840    7.6130  123.5290 C.3   241  MET241      0.0692
@<TRIPOS>BOND
     1    37    38    1
     2    37    40    1
     3    37    36    1
     4    38    39    2
     5    40    41    1
     6   120   119    2
     7   111   110    1
     8   111   112    2
     9   119   118    1
    10   117   118    1
    11   110   109    1
    12   110   113    1
    13    47    48    1
    14    50    49    2
    15   118   121    1
    16    49    48    1
    17   113   114    1
    18    48    51    1
    19    41    42   ar
    20    41    43   ar
    21    42    44   ar
    22   121   123    1
    23   121   122    1
    24    43    45   ar
    25   125   126    1
    26    58    57    2
    27   114   115    1
    28    55    56    1
    29    51    52    1
    30   122   124    1
    31   130   129    1
    32   126   129    1
    33   126   127    1
    34   116   115    1
    35   108   106    1
    36    57    56    1
    37    44    46   ar
    38    53    52    1
    39    45    46   ar
    40    56    59    1
    41    52    54    1
    42   129   131    1
    43   127   128    2
    44   143   142    1
    45   140   142   ar
    46   140   138   ar
    47   107   105    1
    48    98    95    1
    49    98    99    1
    50   132   133    1
    51    59    60    1
    52   183   184    2
    53   183   182    1
    54   142   141   ar
    55   138   137   ar
    56    60    61    1
    57   106   105    1
    58    95    96    1
    59    95    94    1
    60   141   139   ar
    61   102   105    1
    62   102   101    1
    63   102   103    1
    64   137   139   ar
    65   137   136    1
    66    99   100    1
    67    35    33    1
    68   182   181    1
    69   182   185    1
    70    63    64    1
    71   136   133    1
    72   133   134    1
    73   100    94    1
    74    96    97    2
    75    66    65    2
    76   103   104    2
    77   135   134    2
    78    62    61    1
    79   185   186    1
    80    70    72   ar
    81    70    68   ar
    82    72    73   ar
    83   152   153   ar
    84   152   150   ar
    85    33    32    1
    86    33    34    1
    87    64    65    1
    88    64    67    1
    89    29    28    1
    90    29    32    1
    91    29    30    1
    92   153   151   ar
    93    31    30    2
    94    67    68    1
    95    68    69   ar
    96   186   187    1
    97    89    91   ar
    98    89    87   ar
    99    91    92   ar
   100   150   149   ar
   101    73    71   ar
   102   151   149   ar
   103   187   188    1
   104    86    87    1
   105    86    83    1
   106   149   148    1
   107    87    88   ar
   108    69    71   ar
   109    77    76    2
   110    92    93    1
   111    92    90   ar
   112    81    79    1
   113    78    79    1
   114    78    80    1
   115    78    75    1
   116   172   170   ar
   117   172   171   ar
   118    88    90   ar
   119   144   145    1
   120   148   145    1
   121   170   168   ar
   122   171   169   ar
   123    82    83    1
   124    76    75    1
   125    85    84    2
   126    74    75    1
   127    83    84    1
   128   168   167   ar
   129   169   167   ar
   130   145   146    1
   131   167   166    1
   132   180   178    1
   133     7     5    1
   134    23    25   ar
   135    23    21   ar
   136   166   163    1
   137   179   178    1
   138   165   164    2
   139    25    26   ar
   140    20    21    1
   141    20    17    1
   142    21    22   ar
   143   178   177    1
   144    26    27    1
   145    26    24   ar
   146   163   164    1
   147   163   162    1
   148    22    24   ar
   149   160   159    2
   150   146   147    2
   151     8     6    1
   152   161   159   am
   153     6     5    1
   154     5     2    1
   155    17    16    1
   156    17    18    1
   157   159   158    1
   158   177   174    1
   159    16    11   am
   160    12    11    2
   161    11    10    1
   162     9    10    1
   163     9     3   am
   164    10    13    1
   165     2     3    1
   166     2     1    1
   167   174   173    1
   168   174   175    1
   169    19    18    2
   170     3     4    2
   171   158   155    1
   172   155   156    1
   173   155   154    1
   174   175   176    2
   175    14    13    1
   176    13    15    1
   177   156   157    2
