@<TRIPOS>MOLECULE
tmp/1z7yA00.pdb
 193 184 0 0 0
SMALL
GASTEIGER

@<TRIPOS>ATOM
      1  N         76.8420   35.5890  -20.0830 N.3    42  SER42      -0.1202
      2  CA        77.5550   36.6910  -19.4260 C.3    42  SER42       0.2020
      3  C         78.7390   36.1590  -18.6310 C.2    42  SER42       0.2619
      4  O         78.7300   35.0120  -18.1800 O.2    42  SER42      -0.2717
      5  CB        76.6340   37.4590  -18.4770 C.3    42  SER42       0.2103
      6  OG        77.3710   38.3930  -17.7120 O.3    42  SER42      -0.2182
      7  N         79.7590   36.9960  -18.4620 N.am   43  VAL43      -0.1965
      8  CA        80.9550   36.6120  -17.7120 C.3    43  VAL43       0.1727
      9  C         80.6590   36.5510  -16.2160 C.2    43  VAL43       0.2616
     10  O         81.3300   35.8380  -15.4760 O.2    43  VAL43      -0.2715
     11  CB        82.0870   37.6220  -17.9210 C.3    43  VAL43       0.0290
     12  CG1       81.7140   38.9630  -17.2850 C.3    43  VAL43       0.0023
     13  CG2       83.3650   37.0820  -17.3300 C.3    43  VAL43       0.0023
     14  N         79.6580   37.3140  -15.7790 N.am   44  ALA44      -0.1977
     15  CA        79.2630   37.3470  -14.3730 C.3    44  ALA44       0.1597
     16  C         78.8810   35.9600  -13.8730 C.2    44  ALA44       0.2287
     17  O         78.9570   35.6730  -12.6840 O.2    44  ALA44      -0.2864
     18  CB        78.0950   38.3000  -14.1790 C.3    44  ALA44       0.0319
     19  N         81.4440   34.7780  -11.3280 N.3    47  ILE47      -0.1245
     20  CA        81.5210   35.3060   -9.9770 C.3    47  ILE47       0.1561
     21  C         80.2060   35.0380   -9.2300 C.2    47  ILE47       0.2260
     22  O         80.1840   34.9440   -8.0060 O.2    47  ILE47      -0.2867
     23  CB        81.8610   36.8240   -9.9750 C.3    47  ILE47       0.0252
     24  CG1       80.6260   37.6540  -10.3150 C.3    47  ILE47       0.0019
     25  CG2       82.9580   37.1090  -10.9940 C.3    47  ILE47       0.0019
     26  CD1       80.8950   39.1490  -10.3630 C.3    47  ILE47       0.0001
     27  N         73.1610   45.5200   -7.1650 N.3    72  THR72      -0.1218
     28  CA        73.6230   45.4980   -8.5390 C.3    72  THR72       0.1862
     29  C         72.4450   45.6490   -9.4710 C.2    72  THR72       0.2287
     30  O         71.3260   45.2440   -9.1460 O.2    72  THR72      -0.2866
     31  CB        74.3190   44.1870   -8.9020 C.3    72  THR72       0.1770
     32  OG1       74.6050   44.1940  -10.3070 O.3    72  THR72      -0.2211
     33  CG2       73.4250   42.9950   -8.5810 C.3    72  THR72       0.0375
     34  N         73.3690   45.2550  -12.9170 N.3    74  GLY74      -0.1210
     35  CA        73.9150   44.5370  -14.0610 C.3    74  GLY74       0.1956
     36  C         73.6820   43.0320  -14.0930 C.2    74  GLY74       0.2612
     37  O         72.7890   42.5070  -13.4240 O.2    74  GLY74      -0.2717
     38  N         74.5070   42.3350  -14.8670 N.am   75  ASN75      -0.1960
     39  CA        74.3940   40.8890  -15.0280 C.3    75  ASN75       0.1819
     40  C         74.6960   39.9900  -13.8250 C.2    75  ASN75       0.2621
     41  O         74.1780   38.8740  -13.7620 O.2    75  ASN75      -0.2715
     42  CB        75.2530   40.4160  -16.2040 C.3    75  ASN75       0.1195
     43  CG        74.8240   41.0230  -17.5190 C.2    75  ASN75       0.2630
     44  OD1       73.6840   41.4540  -17.6730 O.2    75  ASN75      -0.2716
     45  ND2       75.7370   41.0490  -18.4830 N.am   75  ASN75      -0.0877
     46  N         75.5260   40.4250  -12.8800 N.am   76  THR76      -0.1951
     47  CA        75.8070   39.5590  -11.7340 C.3    76  THR76       0.1897
     48  C         74.5050   39.2070  -11.0380 C.2    76  THR76       0.2313
     49  O         74.4310   38.2250  -10.2980 O.2    76  THR76      -0.2863
     50  CB        76.7530   40.2140  -10.7230 C.3    76  THR76       0.1794
     51  OG1       78.0170   40.4510  -11.3500 O.3    76  THR76      -0.2208
     52  CG2       76.9780   39.2930   -9.5280 C.3    76  THR76       0.0378
     53  N         80.3180   41.8830   -4.8920 N.3   145  GLN145     -0.1231
     54  CA        81.1760   41.4980   -5.9970 C.3   145  GLN145      0.1698
     55  C         82.4250   42.3530   -6.1010 C.2   145  GLN145      0.2592
     56  O         83.3900   41.9420   -6.7350 O.2   145  GLN145     -0.2718
     57  CB        80.4090   41.5600   -7.3140 C.3   145  GLN145      0.0381
     58  CG        79.6920   42.8720   -7.5610 C.3   145  GLN145      0.0905
     59  CD        78.9150   42.8660   -8.8700 C.2   145  GLN145      0.2608
     60  OE1       77.9600   43.6230   -9.0400 O.2   145  GLN145     -0.2717
     61  NE2       79.3290   42.0150   -9.8030 N.am  145  GLN145     -0.0878
     62  N         82.4190   43.5330   -5.4890 N.am  146  PHE146     -0.1976
     63  CA        83.5890   44.4060   -5.5510 C.3   146  PHE146      0.1639
     64  C         84.5860   44.1480   -4.4280 C.2   146  PHE146      0.2290
     65  O         85.7610   44.4900   -4.5460 O.2   146  PHE146     -0.2864
     66  CB        83.1770   45.8750   -5.4960 C.3   146  PHE146      0.0560
     67  CG        82.2710   46.2960   -6.6100 C.ar  146  PHE146     -0.0200
     68  CD1       80.9410   45.8910   -6.6360 C.ar  146  PHE146     -0.0042
     69  CD2       82.7510   47.0950   -7.6410 C.ar  146  PHE146     -0.0042
     70  CE1       80.1020   46.2800   -7.6770 C.ar  146  PHE146     -0.0003
     71  CE2       81.9230   47.4900   -8.6870 C.ar  146  PHE146     -0.0003
     72  CZ        80.5970   47.0810   -8.7070 C.ar  146  PHE146     -0.0000
     73  N         85.6010   36.4910   -6.4210 N.3   151  ASN151     -0.1240
     74  CA        85.5040   37.1420   -7.7190 C.3   151  ASN151      0.1653
     75  C         86.7780   36.8820   -8.5570 C.2   151  ASN151      0.2266
     76  O         86.7830   36.0050   -9.4230 O.2   151  ASN151     -0.2867
     77  CB        85.2640   38.6490   -7.5290 C.3   151  ASN151      0.1155
     78  CG        85.0670   39.3830   -8.8410 C.2   151  ASN151      0.2627
     79  OD1       85.5350   38.9390   -9.8890 O.2   151  ASN151     -0.2716
     80  ND2       84.3850   40.5220   -8.7880 N.am  151  ASN151     -0.0877
     81  N         88.5290   33.7250  -11.6560 N.3   155  HIS155     -0.1241
     82  CA        89.2300   34.0970  -12.8840 C.3   155  HIS155      0.1621
     83  C         90.6710   33.6230  -12.8840 C.2   155  HIS155      0.2264
     84  O         91.2860   33.4180  -13.9280 O.2   155  HIS155     -0.2867
     85  CB        89.1790   35.6080  -13.0600 C.3   155  HIS155      0.0745
     86  CG        87.8060   36.1230  -13.3340 C.ar  155  HIS155      0.0817
     87  ND1       87.1210   35.8300  -14.4930 N.ar  155  HIS155     -0.2268
     88  CD2       86.9620   36.8710  -12.5810 C.ar  155  HIS155      0.1154
     89  CE1       85.9180   36.3710  -14.4440 C.ar  155  HIS155      0.1986
     90  NE2       85.7970   37.0090  -13.2910 N.ar  155  HIS155     -0.2212
     91  N         87.8190   44.9760  -20.0830 N.3   177  GLY177     -0.1210
     92  CA        87.1290   46.1570  -19.5950 C.3   177  GLY177      0.1956
     93  C         87.0030   46.0020  -18.0850 C.2   177  GLY177      0.2612
     94  O         86.7000   44.9140  -17.5960 O.2   177  GLY177     -0.2717
     95  N         87.2120   47.0790  -17.3360 N.am  178  ILE178     -0.1965
     96  CA        87.1530   46.9950  -15.8840 C.3   178  ILE178      0.1727
     97  C         85.8370   47.3850  -15.2200 C.2   178  ILE178      0.2617
     98  O         85.4490   48.5520  -15.1820 O.2   178  ILE178     -0.2715
     99  CB        88.3090   47.7970  -15.2760 C.3   178  ILE178      0.0290
    100  CG1       89.6200   47.2130  -15.8000 C.3   178  ILE178      0.0022
    101  CG2       88.2790   47.7170  -13.7610 C.3   178  ILE178      0.0023
    102  CD1       90.8400   48.0960  -15.6460 C.3   178  ILE178      0.0001
    103  N         85.1500   46.3760  -14.7070 N.am  179  GLY179     -0.1940
    104  CA        83.8920   46.5830  -14.0140 C.3   179  GLY179      0.2014
    105  C         84.2240   46.4730  -12.5380 C.2   179  GLY179      0.2640
    106  O         84.4430   47.4960  -11.8910 O.2   179  GLY179     -0.2714
    107  N         84.2530   45.2520  -11.9970 N.am  180  THR180     -0.1936
    108  CA        84.6270   45.0690  -10.5920 C.3   180  THR180      0.2028
    109  C         86.1470   44.9290  -10.5930 C.2   180  THR180      0.2643
    110  O         86.7850   44.9720   -9.5460 O.2   180  THR180     -0.2714
    111  CB        84.0420   43.7770   -9.9350 C.3   180  THR180      0.1808
    112  OG1       84.8060   42.6260  -10.3380 O.3   180  THR180     -0.2208
    113  CG2       82.5880   43.5950  -10.3130 C.3   180  THR180      0.0379
    114  N         86.7210   44.7670  -11.7810 N.am  181  GLY181     -0.1939
    115  CA        88.1590   44.6170  -11.8800 C.3   181  GLY181      0.2014
    116  C         88.5500   43.1810  -11.5980 C.2   181  GLY181      0.2639
    117  O         89.7190   42.8080  -11.7010 O.2   181  GLY181     -0.2714
    118  N         87.5540   42.3740  -11.2420 N.am  182  GLY182     -0.1939
    119  CA        87.7870   40.9700  -10.9470 C.3   182  GLY182      0.2014
    120  C         88.4560   40.1780  -12.0570 C.2   182  GLY182      0.2640
    121  O         89.4350   39.4710  -11.8130 O.2   182  GLY182     -0.2714
    122  N         87.9170   40.2810  -13.2690 N.am  183  THR183     -0.1936
    123  CA        88.4640   39.5800  -14.4210 C.3   183  THR183      0.2028
    124  C         89.9120   39.9190  -14.7400 C.2   183  THR183      0.2642
    125  O         90.7820   39.0500  -14.7520 O.2   183  THR183     -0.2714
    126  CB        87.6780   39.8930  -15.6700 C.3   183  THR183      0.1808
    127  OG1       86.3770   39.3050  -15.5700 O.3   183  THR183     -0.2208
    128  CG2       88.4090   39.3580  -16.8790 C.3   183  THR183      0.0379
    129  N         90.1510   41.1870  -15.0470 N.am  184  ILE184     -0.1977
    130  CA        91.4870   41.6670  -15.3820 C.3   184  ILE184      0.1596
    131  C         92.5260   41.1670  -14.3700 C.2   184  ILE184      0.2287
    132  O         93.5860   40.6770  -14.7490 O.2   184  ILE184     -0.2864
    133  CB        91.5070   43.2310  -15.4420 C.3   184  ILE184      0.0276
    134  CG1       92.7960   43.7090  -16.0990 C.3   184  ILE184      0.0022
    135  CG2       91.3770   43.8350  -14.0370 C.3   184  ILE184      0.0022
    136  CD1       92.8680   43.3850  -17.5580 C.3   184  ILE184      0.0001
    137  N         77.7990   50.0180  -20.7780 N.3   222  GLN222     -0.1231
    138  CA        77.2280   49.2790  -19.6540 C.3   222  GLN222      0.1698
    139  C         78.0880   48.0940  -19.2230 C.2   222  GLN222      0.2593
    140  O         78.4530   47.2490  -20.0410 O.2   222  GLN222     -0.2718
    141  CB        75.8220   48.7790  -20.0160 C.3   222  GLN222      0.0381
    142  CG        75.1630   47.9380  -18.9240 C.3   222  GLN222      0.0905
    143  CD        74.2870   48.7540  -17.9810 C.2   222  GLN222      0.2608
    144  OE1       73.1720   49.1490  -18.3370 O.2   222  GLN222     -0.2717
    145  NE2       74.7880   49.0130  -16.7760 N.am  222  GLN222     -0.0878
    146  N         78.4100   48.0350  -17.9350 N.am  223  GLY223     -0.1942
    147  CA        79.2100   46.9320  -17.4350 C.3   223  GLY223      0.2014
    148  C         80.6080   47.2790  -16.9520 C.2   223  GLY223      0.2638
    149  O         81.2570   46.4540  -16.3180 O.2   223  GLY223     -0.2714
    150  N         81.0980   48.4750  -17.2550 N.am  224  ILE224     -0.1977
    151  CA        82.4280   48.8540  -16.7890 C.3   224  ILE224      0.1596
    152  C         82.4720   50.3480  -16.4570 C.2   224  ILE224      0.2287
    153  O         81.5070   51.0680  -16.7030 O.2   224  ILE224     -0.2864
    154  CB        83.5390   48.4960  -17.8390 C.3   224  ILE224      0.0276
    155  CG1       83.3480   49.2890  -19.1340 C.3   224  ILE224      0.0022
    156  CG2       83.4990   47.0110  -18.1540 C.3   224  ILE224      0.0022
    157  CD1       84.5230   49.1710  -20.0910 C.3   224  ILE224      0.0001
    158  N         82.9600   51.7380  -13.3050 N.3   226  ALA226     -0.1245
    159  CA        82.2130   51.9440  -12.0760 C.3   226  ALA226      0.1562
    160  C         82.5010   53.3010  -11.4430 C.2   226  ALA226      0.2260
    161  O         81.9200   53.6500  -10.4170 O.2   226  ALA226     -0.2867
    162  CB        82.5350   50.8310  -11.0910 C.3   226  ALA226      0.0290
    163  N         79.8430   46.5980  -24.1100 N.3   267  SER267     -0.1217
    164  CA        81.1010   46.4660  -23.3580 C.3   267  SER267      0.1889
    165  C         82.0800   45.6380  -24.1570 C.2   267  SER267      0.2288
    166  O         83.2890   45.8240  -24.0670 O.2   267  SER267     -0.2866
    167  CB        80.8790   45.7930  -21.9910 C.3   267  SER267      0.2089
    168  OG        80.3920   44.4630  -22.1230 O.3   267  SER267     -0.2183
    169  N         82.4850   40.2690  -22.7410 N.3   294  PRO294     -0.2102
    170  CA        81.6650   40.0460  -21.5470 C.3   294  PRO294      0.1504
    171  C         80.2100   39.5840  -21.6760 C.2   294  PRO294      0.2576
    172  O         79.7210   38.8660  -20.8000 O.2   294  PRO294     -0.2718
    173  CB        81.7470   41.3900  -20.8230 C.3   294  PRO294      0.0282
    174  CG        83.0220   41.9750  -21.3020 C.3   294  PRO294      0.0208
    175  CD        82.9850   41.6510  -22.7520 C.3   294  PRO294      0.0893
    176  N         79.5120   39.9790  -22.7390 N.am  295  SER295     -0.1953
    177  CA        78.1000   39.6170  -22.8510 C.3   295  SER295      0.1924
    178  C         77.5250   39.4440  -24.2510 C.2   295  SER295      0.2314
    179  O         78.1160   39.8760  -25.2330 O.2   295  SER295     -0.2863
    180  CB        77.2870   40.6880  -22.1570 C.3   295  SER295      0.2116
    181  OG        77.5860   41.9390  -22.7550 O.3   295  SER295     -0.2180
    182  N         70.2720   43.4620  -24.6550 N.3   300  TYR300     -0.1241
    183  CA        70.4780   44.8940  -24.7700 C.3   300  TYR300      0.1605
    184  C         69.5620   45.4840  -25.8330 C.2   300  TYR300      0.2264
    185  O         69.7360   46.6320  -26.2370 O.2   300  TYR300     -0.2867
    186  CB        71.9510   45.1740  -25.1370 C.3   300  TYR300      0.0534
    187  CG        72.9530   44.7780  -24.0640 C.ar  300  TYR300     -0.0201
    188  CD1       73.2110   45.6150  -22.9800 C.ar  300  TYR300     -0.0009
    189  CD2       73.5820   43.5360  -24.0930 C.ar  300  TYR300     -0.0009
    190  CE1       74.0630   45.2220  -21.9450 C.ar  300  TYR300      0.0417
    191  CE2       74.4340   43.1320  -23.0660 C.ar  300  TYR300      0.0417
    192  CZ        74.6680   43.9770  -21.9920 C.ar  300  TYR300      0.1957
    193  OH        75.4770   43.5680  -20.9510 O.3   300  TYR300     -0.2866
@<TRIPOS>BOND
     1   185   184    2
     2   184   183    1
     3   179   178    2
     4   186   183    1
     5   186   187    1
     6   183   182    1
     7   178   177    1
     8   165   166    2
     9   165   164    1
    10   163   164    1
    11   189   187   ar
    12   189   191   ar
    13   187   188   ar
    14   164   167    1
    15   191   192   ar
    16   188   190   ar
    17   177   176    1
    18   177   180    1
    19   181   180    1
    20   175   169    1
    21   175   174    1
    22   169   170    1
    23   176   171   am
    24   168   167    1
    25   192   190   ar
    26   192   193    1
    27   171   170    1
    28   171   172    2
    29   170   173    1
    30   174   173    1
    31   137   138    1
    32   157   155    1
    33    91    92    1
    34     1     2    1
    35   140   139    2
    36   141   138    1
    37   141   142    1
    38   138   139    1
    39    92    93    1
    40     2     3    1
    41     2     5    1
    42   139   146   am
    43   155   154    1
    44   142   143    1
    45     3     7   am
    46     3     4    2
    47    45    43   am
    48     5     6    1
    49     7     8    1
    50   144   143    2
    51   156   154    1
    52    93    94    2
    53    93    95   am
    54   143   145   am
    55   146   147    1
    56    11     8    1
    57    11    13    1
    58    11    12    1
    59   154   151    1
    60     8     9    1
    61    44    43    2
    62   136   134    1
    63    43    42    1
    64   147   148    1
    65    95    96    1
    66   150   148   am
    67   150   151    1
    68   148   149    2
    69   128   126    1
    70   151   152    1
    71   153   152    2
    72     9    14   am
    73     9    10    2
    74    42    39    1
    75   134   133    1
    76    96    99    1
    77    96    97    1
    78   100   102    1
    79   100    99    1
    80    14    15    1
    81   126   127    1
    82   126   123    1
    83   133   130    1
    84   133   135    1
    85   130   129    1
    86   130   131    1
    87    99   101    1
    88    97    98    2
    89    97   103   am
    90   129   124   am
    91    39    38    1
    92    39    40    1
    93    38    36   am
    94   125   124    2
    95   132   131    2
    96   124   123    1
    97   103   104    1
    98    87    89   ar
    99    87    86   ar
   100    89    90   ar
   101   123   122    1
   102    15    18    1
   103    15    16    1
   104    36    35    1
   105    36    37    2
   106    35    34    1
   107   104   105    1
   108    84    83    2
   109    16    17    2
   110    40    41    2
   111    40    46   am
   112    86    85    1
   113    86    88   ar
   114   158   159    1
   115    90    88   ar
   116   122   120   am
   117    85    82    1
   118    82    83    1
   119    82    81    1
   120    46    47    1
   121   105   107   am
   122   105   106    2
   123   159   160    1
   124   159   162    1
   125   120   121    2
   126   120   119    1
   127   107   108    1
   128   115   114    1
   129   115   116    1
   130   114   109   am
   131    47    48    1
   132    47    50    1
   133   117   116    2
   134   116   118   am
   135   160   161    2
   136    51    50    1
   137    19    20    1
   138   118   119    1
   139    48    49    2
   140    25    23    1
   141    50    52    1
   142   109   108    1
   143   109   110    2
   144   108   111    1
   145    26    24    1
   146   112   111    1
   147    24    23    1
   148   113   111    1
   149    32    31    1
   150    20    23    1
   151    20    21    1
   152    79    78    2
   153    61    59   am
   154    29    30    2
   155    29    28    1
   156    76    75    2
   157    21    22    2
   158    60    59    2
   159    31    33    1
   160    31    28    1
   161    59    58    1
   162    78    80   am
   163    78    77    1
   164    72    71   ar
   165    72    70   ar
   166    71    69   ar
   167    75    74    1
   168    28    27    1
   169    74    77    1
   170    74    73    1
   171    70    68   ar
   172    69    67   ar
   173    58    57    1
   174    57    54    1
   175    56    55    2
   176    68    67   ar
   177    67    66    1
   178    55    54    1
   179    55    62   am
   180    54    53    1
   181    63    66    1
   182    63    62    1
   183    63    64    1
   184    65    64    2
