@<TRIPOS>MOLECULE
tmp/1z7zC00.pdb
 219 218 0 0 0
SMALL
GASTEIGER

@<TRIPOS>ATOM
      1  N         25.3260  -28.0620  131.7190 N.3    12  PRO12      -0.2102
      2  CA        25.4090  -28.4400  133.1360 C.3    12  PRO12       0.1504
      3  C         24.4210  -27.7290  134.0590 C.2    12  PRO12       0.2576
      4  O         24.8400  -27.1170  135.0380 O.2    12  PRO12      -0.2718
      5  CB        26.8520  -28.0420  133.5170 C.3    12  PRO12       0.0282
      6  CG        27.6370  -28.1370  132.2120 C.3    12  PRO12       0.0208
      7  CD        26.6240  -27.6350  131.1920 C.3    12  PRO12       0.0893
      8  N         23.1030  -27.8050  133.7980 N.am   13  MET13      -0.1966
      9  CA        22.0560  -27.1240  134.5440 C.3    13  MET13       0.1736
     10  C         22.0380  -27.4570  136.0200 C.2    13  MET13       0.2616
     11  O         21.9970  -26.5800  136.8800 O.2    13  MET13      -0.2715
     12  CB        20.6640  -27.5030  133.9860 C.3    13  MET13       0.0427
     13  CG        20.3360  -26.8660  132.6290 C.3    13  MET13       0.0599
     14  SD        20.0910  -25.0720  132.7170 S.3    13  MET13      -0.1393
     15  CE        18.9860  -25.0640  131.2790 C.3    13  MET13       0.0692
     16  N         22.0720  -28.7560  136.3440 N.am   14  ASN14      -0.1958
     17  CA        21.9540  -29.2530  137.6910 C.3    14  ASN14       0.1819
     18  C         23.3380  -29.4450  138.3080 C.2    14  ASN14       0.2621
     19  O         23.6110  -30.4300  138.9860 O.2    14  ASN14      -0.2715
     20  CB        21.1370  -30.5710  137.6310 C.3    14  ASN14       0.1195
     21  CG        20.7720  -31.0690  139.0220 C.2    14  ASN14       0.2630
     22  OD1       20.1850  -30.3660  139.8440 O.2    14  ASN14      -0.2716
     23  ND2       21.1530  -32.3290  139.3160 N.am   14  ASN14      -0.0877
     24  N         24.2670  -28.4880  138.1280 N.am   15  ALA15      -0.1963
     25  CA        25.5980  -28.5610  138.7030 C.3    15  ALA15       0.1728
     26  C         25.6340  -28.0720  140.1560 C.2    15  ALA15       0.2616
     27  O         26.4430  -27.2350  140.5500 O.2    15  ALA15      -0.2715
     28  CB        26.5740  -27.7830  137.7990 C.3    15  ALA15       0.0334
     29  N         24.7400  -28.6280  140.9920 N.am   16  VAL16      -0.1963
     30  CA        24.5620  -28.3480  142.4080 C.3    16  VAL16       0.1727
     31  C         25.5380  -29.2200  143.1980 C.2    16  VAL16       0.2616
     32  O         26.1870  -30.1010  142.6350 O.2    16  VAL16      -0.2715
     33  CB        23.0930  -28.5950  142.7910 C.3    16  VAL16       0.0290
     34  CG1       22.7690  -28.2500  144.2600 C.3    16  VAL16       0.0023
     35  CG2       22.1930  -27.7350  141.8750 C.3    16  VAL16       0.0023
     36  N         25.7200  -29.0220  144.5220 N.am   17  ASP17      -0.1971
     37  CA        26.6040  -29.8440  145.3350 C.3    17  ASP17       0.1709
     38  C         26.2920  -31.3460  145.2630 C.2    17  ASP17       0.2293
     39  O         25.1410  -31.7780  145.2190 O.2    17  ASP17      -0.2864
     40  CB        26.6100  -29.3440  146.8040 C.3    17  ASP17       0.1436
     41  CG        27.9670  -29.5270  147.4450 C.2    17  ASP17       0.3671
     42  OD1       28.2320  -28.8590  148.4780 O.co2  17  ASP17      -0.2456
     43  OD2       28.8550  -30.1790  146.8350 O.co2  17  ASP17      -0.2456
     44  N         27.9070  -31.3920  140.6690 N.3    20  VAL20      -0.1231
     45  CA        29.0040  -30.7530  139.9380 C.3    20  VAL20       0.1692
     46  C         30.0820  -31.7350  139.5010 C.2    20  VAL20       0.2592
     47  O         30.5540  -32.5200  140.3150 O.2    20  VAL20      -0.2718
     48  CB        29.7680  -29.6760  140.7370 C.3    20  VAL20       0.0266
     49  CG1       30.1440  -28.5180  139.7940 C.3    20  VAL20       0.0020
     50  CG2       28.9780  -29.1520  141.9440 C.3    20  VAL20       0.0020
     51  N         30.5260  -31.6910  138.2250 N.am   21  ASN21      -0.1974
     52  CA        31.6550  -32.4710  137.7230 C.3    21  ASN21       0.1688
     53  C         31.4150  -33.9740  137.6950 C.2    21  ASN21       0.2292
     54  O         32.3370  -34.7800  137.7580 O.2    21  ASN21      -0.2864
     55  CB        32.9830  -32.1190  138.4390 C.3    21  ASN21       0.1181
     56  CG        33.2510  -30.6420  138.2020 C.2    21  ASN21       0.2629
     57  OD1       33.3890  -30.2020  137.0600 O.2    21  ASN21      -0.2716
     58  ND2       33.2980  -29.8300  139.2800 N.am   21  ASN21      -0.0877
     59  N         25.0570  -33.7590  136.5260 N.3    25  MET25      -0.1230
     60  CA        24.8110  -32.3370  136.2980 C.3    25  MET25       0.1702
     61  C         24.0260  -32.0230  135.0360 C.2    25  MET25       0.2592
     62  O         23.3340  -31.0080  134.9460 O.2    25  MET25      -0.2718
     63  CB        26.1230  -31.5130  136.2520 C.3    25  MET25       0.0401
     64  CG        27.0710  -31.8060  135.0720 C.3    25  MET25       0.0596
     65  SD        28.7670  -31.2490  135.4020 S.3    25  MET25      -0.1393
     66  CE        29.6200  -32.3250  134.2110 C.3    25  MET25       0.0692
     67  N         24.1080  -32.9000  134.0200 N.am   26  TYR26      -0.1976
     68  CA        23.4260  -32.7300  132.7510 C.3    26  TYR26       0.1639
     69  C         21.9550  -33.1200  132.8480 C.2    26  TYR26       0.2290
     70  O         21.1370  -32.7890  131.9900 O.2    26  TYR26      -0.2864
     71  CB        24.1100  -33.6210  131.6790 C.3    26  TYR26       0.0560
     72  CG        25.5090  -33.1630  131.3570 C.ar   26  TYR26      -0.0198
     73  CD1       26.5930  -34.0600  131.4040 C.ar   26  TYR26      -0.0009
     74  CD2       25.7420  -31.8490  130.9190 C.ar   26  TYR26      -0.0009
     75  CE1       27.8850  -33.6390  131.0550 C.ar   26  TYR26       0.0417
     76  CE2       27.0260  -31.4340  130.5470 C.ar   26  TYR26       0.0417
     77  CZ        28.0990  -32.3240  130.6290 C.ar   26  TYR26       0.1957
     78  OH        29.3920  -31.8980  130.2700 O.3    26  TYR26      -0.2866
     79  N         18.3800  -32.8770  134.3900 N.3    28  ILE28      -0.1231
     80  CA        17.5090  -31.9350  135.0840 C.3    28  ILE28       0.1678
     81  C         16.4080  -32.6810  135.8340 C.2    28  ILE28       0.2434
     82  O         15.6760  -33.4150  135.1720 O.2    28  ILE28      -0.2733
     83  CB        16.8430  -30.9650  134.1070 C.3    28  ILE28       0.0265
     84  CG1       17.9260  -30.2100  133.2910 C.3    28  ILE28       0.0019
     85  CG2       15.8840  -30.0030  134.8500 C.3    28  ILE28       0.0020
     86  CD1       17.3850  -29.2300  132.2410 C.3    28  ILE28       0.0001
     87  N         16.2140  -32.5610  137.1500 N.am   29  PRO29      -0.2729
     88  CA        15.2020  -33.3090  137.8950 C.3    29  PRO29       0.1401
     89  C         13.7720  -32.9510  137.5220 C.2    29  PRO29       0.2269
     90  O         13.4330  -31.7760  137.4000 O.2    29  PRO29      -0.2865
     91  CB        15.4790  -32.9150  139.3620 C.3    29  PRO29       0.0296
     92  CG        16.0760  -31.5090  139.2580 C.3    29  PRO29       0.0237
     93  CD        16.9370  -31.6220  138.0060 C.3    29  PRO29       0.0939
     94  N          7.1620  -23.9750  141.6410 N.3    37  ALA37      -0.1231
     95  CA         8.5190  -23.5060  141.7370 C.3    37  ALA37       0.1679
     96  C          9.2060  -23.6410  140.3850 C.2    37  ALA37       0.2434
     97  O          8.7260  -24.3860  139.5260 O.2    37  ALA37      -0.2733
     98  CB         9.2790  -24.3250  142.8040 C.3    37  ALA37       0.0304
     99  N         10.3170  -22.9580  140.1350 N.am   38  PRO38      -0.2718
    100  CA        11.0820  -23.1740  138.9180 C.3    38  PRO38       0.1535
    101  C         11.7180  -24.5540  138.8780 C.2    38  PRO38       0.2598
    102  O         12.2140  -25.0200  139.9010 O.2    38  PRO38      -0.2715
    103  CB        12.1660  -22.0800  138.9570 C.3    38  PRO38       0.0310
    104  CG        11.5820  -20.9830  139.8500 C.3    38  PRO38       0.0237
    105  CD        10.7560  -21.7670  140.8670 C.3    38  PRO38       0.0939
    106  N         11.7500  -25.2090  137.7010 N.am   39  ILE39      -0.1964
    107  CA        12.4910  -26.4550  137.5030 C.3    39  ILE39       0.1727
    108  C         13.9730  -26.0980  137.4130 C.2    39  ILE39       0.2616
    109  O         14.8360  -26.7430  138.0040 O.2    39  ILE39      -0.2715
    110  CB        12.0770  -27.2440  136.2480 C.3    39  ILE39       0.0290
    111  CG1       10.6290  -27.7840  136.2800 C.3    39  ILE39       0.0022
    112  CG2       13.0020  -28.4650  136.0500 C.3    39  ILE39       0.0023
    113  CD1        9.5390  -26.7200  136.2010 C.3    39  ILE39       0.0001
    114  N         14.2990  -25.0180  136.6770 N.am   40  PHE40      -0.1960
    115  CA        15.6280  -24.4510  136.6620 C.3    40  PHE40       0.1771
    116  C         15.5160  -22.9580  136.4120 C.2    40  PHE40       0.2620
    117  O         14.4560  -22.4550  136.0310 O.2    40  PHE40      -0.2715
    118  CB        16.5820  -25.1310  135.6280 C.3    40  PHE40       0.0574
    119  CG        16.0920  -25.0370  134.2090 C.ar   40  PHE40      -0.0200
    120  CD1       16.3480  -23.8870  133.4430 C.ar   40  PHE40      -0.0042
    121  CD2       15.3720  -26.0950  133.6310 C.ar   40  PHE40      -0.0042
    122  CE1       15.8550  -23.7760  132.1400 C.ar   40  PHE40      -0.0003
    123  CE2       14.9030  -26.0020  132.3150 C.ar   40  PHE40      -0.0003
    124  CZ        15.1310  -24.8330  131.5810 C.ar   40  PHE40      -0.0000
    125  N         16.6200  -22.2170  136.6150 N.am   41  CYS41      -0.1954
    126  CA        16.7600  -20.8410  136.1780 C.3    41  CYS41       0.1843
    127  C         18.1270  -20.6830  135.5280 C.2    41  CYS41       0.2625
    128  O         19.0140  -21.5210  135.7120 O.2    41  CYS41      -0.2714
    129  CB        16.5990  -19.8410  137.3480 C.3    41  CYS41       0.0997
    130  SG        14.9000  -19.8120  138.0050 S.3    41  CYS41      -0.0797
    131  N         18.3120  -19.6320  134.7020 N.am   42  LEU42      -0.1963
    132  CA        19.5720  -19.3830  134.0320 C.3    42  LEU42       0.1728
    133  C         19.7310  -17.9170  133.6270 C.2    42  LEU42       0.2616
    134  O         18.9410  -17.3760  132.8530 O.2    42  LEU42      -0.2715
    135  CB        19.6990  -20.2810  132.7660 C.3    42  LEU42       0.0311
    136  CG        21.0640  -20.9720  132.5740 C.3    42  LEU42       0.0022
    137  CD1       21.0520  -21.8110  131.2890 C.3    42  LEU42       0.0001
    138  CD2       22.2390  -19.9940  132.5180 C.3    42  LEU42       0.0001
    139  N         20.7780  -17.2300  134.1230 N.am   43  SER43      -0.1950
    140  CA        21.2710  -15.9680  133.5770 C.3    43  SER43       0.1924
    141  C         21.8760  -16.1240  132.1880 C.2    43  SER43       0.2314
    142  O         22.7840  -16.9210  131.9520 O.2    43  SER43      -0.2863
    143  CB        22.3610  -15.3360  134.4950 C.3    43  SER43       0.2116
    144  OG        22.8930  -14.1010  133.9920 O.3    43  SER43      -0.2180
    145  N         28.1560  -20.0510  135.5260 N.3    50  LYS50      -0.1231
    146  CA        28.5780  -21.2420  136.2340 C.3    50  LYS50       0.1693
    147  C         28.2810  -22.5270  135.4670 C.2    50  LYS50       0.2591
    148  O         28.9720  -23.5300  135.6330 O.2    50  LYS50      -0.2718
    149  CB        27.8300  -21.3870  137.5830 C.3    50  LYS50       0.0285
    150  CG        28.0810  -20.2870  138.6260 C.3    50  LYS50       0.0035
    151  CD        27.4180  -20.6900  139.9570 C.3    50  LYS50       0.0206
    152  CE        27.7160  -19.7770  141.1510 C.3    50  LYS50       0.1093
    153  NZ        27.1920  -20.4040  142.3740 N.3    50  LYS50      -0.1314
    154  N         27.1990  -22.5430  134.6630 N.am   51  ARG51      -0.1980
    155  CA        26.7210  -23.7200  133.9630 C.3    51  ARG51       0.1597
    156  C         27.1490  -23.6720  132.5100 C.2    51  ARG51       0.2287
    157  O         27.7730  -24.5940  131.9910 O.2    51  ARG51      -0.2864
    158  CB        25.1690  -23.8000  134.0060 C.3    51  ARG51       0.0334
    159  CG        24.5670  -23.7780  135.4260 C.3    51  ARG51       0.0492
    160  CD        23.2040  -23.0800  135.5110 C.3    51  ARG51       0.2205
    161  NE        23.4740  -21.6090  135.3920 N.pl3  51  ARG51      -0.0865
    162  CZ        22.8310  -20.6790  136.1080 C.cat  51  ARG51       0.5346
    163  NH1       21.6680  -20.9260  136.6990 N.pl3  51  ARG51       0.1354
    164  NH2       23.3320  -19.4570  136.2050 N.pl3  51  ARG51       0.1354
    165  N         29.4070  -22.0760  130.7100 N.3    53  SER53      -0.1202
    166  CA        30.8120  -21.8860  130.3370 C.3    53  SER53       0.2020
    167  C         31.4140  -23.0280  129.5380 C.2    53  SER53       0.2618
    168  O         31.8380  -22.8460  128.4030 O.2    53  SER53      -0.2717
    169  CB        31.7490  -21.5740  131.5430 C.3    53  SER53       0.2103
    170  OG        31.8040  -22.6440  132.4920 O.3    53  SER53      -0.2182
    171  N         31.4240  -24.2580  130.0830 N.am   54  HIS54      -0.1975
    172  CA        31.9970  -25.4130  129.4040 C.3    54  HIS54       0.1656
    173  C         30.9580  -26.2030  128.6300 C.2    54  HIS54       0.2291
    174  O         30.9080  -27.4330  128.6430 O.2    54  HIS54      -0.2864
    175  CB        32.8250  -26.2860  130.3690 C.3    54  HIS54       0.0771
    176  CG        33.7880  -25.3950  131.1000 C.ar   54  HIS54       0.0820
    177  ND1       34.7520  -24.6320  130.4710 N.ar   54  HIS54      -0.2267
    178  CD2       33.7010  -24.9050  132.3660 C.ar   54  HIS54       0.1154
    179  CE1       35.1760  -23.7150  131.3710 C.ar   54  HIS54       0.1986
    180  NE2       34.5540  -23.8310  132.5280 N.ar   54  HIS54      -0.2212
    181  N         13.3870  -10.6060  138.6170 N.3    98  PRO98      -0.2103
    182  CA        13.6290  -11.8660  137.9290 C.3    98  PRO98       0.1489
    183  C         12.4650  -12.8400  138.1320 C.2    98  PRO98       0.2418
    184  O         11.8750  -12.8360  139.2170 O.2    98  PRO98      -0.2734
    185  CB        14.9460  -12.3790  138.5390 C.3    98  PRO98       0.0282
    186  CG        15.0460  -11.6740  139.8950 C.3    98  PRO98       0.0208
    187  CD        14.4210  -10.3110  139.6090 C.3    98  PRO98       0.0893
    188  N         12.0700  -13.6480  137.1590 N.am   99  PRO99      -0.2718
    189  CA        10.8340  -14.4180  137.2290 C.3    99  PRO99       0.1535
    190  C         10.9210  -15.5760  138.2140 C.2    99  PRO99       0.2599
    191  O         11.4420  -16.6430  137.9000 O.2    99  PRO99      -0.2715
    192  CB        10.5980  -14.8720  135.7800 C.3    99  PRO99       0.0310
    193  CG        11.9840  -14.8300  135.1350 C.3    99  PRO99       0.0237
    194  CD        12.6240  -13.6260  135.8070 C.3    99  PRO99       0.0939
    195  N         10.4050  -15.3670  139.4390 N.am  100  THR100     -0.1951
    196  CA        10.4540  -16.3250  140.5340 C.3   100  THR100      0.1897
    197  C          9.2600  -17.2470  140.5130 C.2   100  THR100      0.2313
    198  O          9.3400  -18.3900  140.9480 O.2   100  THR100     -0.2863
    199  CB        10.5040  -15.6700  141.9180 C.3   100  THR100      0.1794
    200  OG1        9.3970  -14.7990  142.1560 O.3   100  THR100     -0.2208
    201  CG2       11.7790  -14.8250  142.0420 C.3   100  THR100      0.0378
    202  N         16.8450  -13.6120  131.6150 N.3   146  PHE146     -0.1241
    203  CA        16.6230  -14.7480  132.4890 C.3   146  PHE146      0.1605
    204  C         15.8510  -15.8310  131.7630 C.2   146  PHE146      0.2264
    205  O         14.7750  -15.5820  131.2200 O.2   146  PHE146     -0.2867
    206  CB        15.7930  -14.3440  133.7360 C.3   146  PHE146      0.0534
    207  CG        16.4440  -13.2010  134.4660 C.ar  146  PHE146     -0.0203
    208  CD1       17.6720  -13.3830  135.1220 C.ar  146  PHE146     -0.0042
    209  CD2       15.8380  -11.9320  134.4910 C.ar  146  PHE146     -0.0042
    210  CE1       18.2860  -12.3170  135.7920 C.ar  146  PHE146     -0.0003
    211  CE2       16.4470  -10.8640  135.1630 C.ar  146  PHE146     -0.0003
    212  CZ        17.6730  -11.0580  135.8130 C.ar  146  PHE146     -0.0000
    213  N         13.8410  -19.4280  132.3470 N.3   148  THR148     -0.1218
    214  CA        13.2650  -20.2760  133.3960 C.3   148  THR148      0.1862
    215  C         12.4650  -21.4110  132.8100 C.2   148  THR148      0.2287
    216  O         12.2030  -21.4830  131.6070 O.2   148  THR148     -0.2866
    217  CB        12.3690  -19.5860  134.4380 C.3   148  THR148      0.1770
    218  OG1       11.1190  -19.1480  133.9130 O.3   148  THR148     -0.2211
    219  CG2       13.0820  -18.3590  135.0110 C.3   148  THR148      0.0375
@<TRIPOS>BOND
     1   168   167    2
     2   173   174    2
     3   173   172    1
     4   172   171    1
     5   172   175    1
     6   167   171   am
     7   167   166    1
     8    78    77    1
     9   166   165    1
    10   166   169    1
    11   175   176    1
    12   177   176   ar
    13   177   179   ar
    14    76    77   ar
    15    76    74   ar
    16    77    75   ar
    17    74    72   ar
    18    75    73   ar
    19   176   178   ar
    20     7     1    1
    21     7     6    1
    22   205   204    2
    23    15    14    1
    24   137   136    1
    25    72    73   ar
    26    72    71    1
    27   179   180   ar
    28   169   170    1
    29   124   122   ar
    30   124   123   ar
    31   216   215    2
    32   202   203    1
    33    71    68    1
    34     1     2    1
    35   204   203    1
    36   142   141    2
    37    70    69    2
    38   157   156    2
    39   122   120   ar
    40   141   140    1
    41     6     5    1
    42    86    84    1
    43   123   121   ar
    44   213   214    1
    45   178   180   ar
    46   203   206    1
    47   156   155    1
    48   138   136    1
    49   136   135    1
    50    13    14    1
    51    13    12    1
    52    68    69    1
    53    68    67    1
    54   135   132    1
    55   215   214    1
    56   134   133    2
    57     2     5    1
    58     2     3    1
    59    84    83    1
    60   214   217    1
    61   120   119   ar
    62   140   139    1
    63   140   143    1
    64   133   132    1
    65   133   139   am
    66   121   119   ar
    67   206   207    1
    68     8     3   am
    69     8     9    1
    70   218   217    1
    71   155   158    1
    72   155   154    1
    73    12     9    1
    74   144   143    1
    75   158   159    1
    76    67    61   am
    77   132   131    1
    78     3     4    2
    79    83    85    1
    80    83    80    1
    81   119   118    1
    82    66    65    1
    83    79    80    1
    84   217   219    1
    85   207   209   ar
    86   207   208   ar
    87   209   211   ar
    88     9    10    1
    89   154   147   am
    90   131   127   am
    91    62    61    2
    92    61    60    1
    93    64    65    1
    94    64    63    1
    95    80    81    1
    96   208   210   ar
    97   193   192    1
    98   193   194    1
    99   211   212   ar
   100    82    81    2
   101   161   160    1
   102   161   162    2
   103   159   160    1
   104   147   148    2
   105   147   146    1
   106   145   146    1
   107   127   128    2
   108   127   126    1
   109   118   115    1
   110   192   189    1
   111   210   212   ar
   112   194   188    1
   113    81    87   am
   114    10    16   am
   115    10    11    2
   116   117   116    2
   117   112   110    1
   118   162   164    1
   119   162   163    1
   120   126   125    1
   121   126   129    1
   122   113   111    1
   123   146   149    1
   124   110   111    1
   125   110   107    1
   126    63    60    1
   127    60    59    1
   128    16    17    1
   129   116   125   am
   130   116   115    1
   131   115   114    1
   132   114   108   am
   133    57    56    2
   134    87    88    1
   135    87    93    1
   136   188   189    1
   137   188   183   am
   138   189   190    1
   139   129   130    1
   140    90    89    2
   141   108   107    1
   142   108   109    2
   143   107   106    1
   144    89    88    1
   145   149   150    1
   146    20    17    1
   147    20    21    1
   148    17    18    1
   149    53    52    1
   150    53    54    2
   151   106   101   am
   152    52    51    1
   153    52    55    1
   154    28    25    1
   155    88    91    1
   156   191   190    2
   157   182   183    1
   158   182   185    1
   159   182   181    1
   160    93    92    1
   161    24    18   am
   162    24    25    1
   163   183   184    2
   164    56    55    1
   165    56    58   am
   166   190   195   am
   167    51    46   am
   168    18    19    2
   169   185   186    1
   170   181   187    1
   171   150   151    1
   172    25    26    1
   173   101   100    1
   174   101   102    2
   175   100   103    1
   176   100    99    1
   177   103   104    1
   178    21    23   am
   179    21    22    2
   180    92    91    1
   181   195   196    1
   182    46    45    1
   183    46    47    2
   184    97    96    2
   185   187   186    1
   186    49    48    1
   187   104   105    1
   188    45    44    1
   189    45    48    1
   190   151   152    1
   191    99    96   am
   192    99   105    1
   193    26    27    2
   194    26    29   am
   195    96    95    1
   196   197   196    1
   197   197   198    2
   198   196   199    1
   199    48    50    1
   200    29    30    1
   201   152   153    1
   202    94    95    1
   203    95    98    1
   204    35    33    1
   205   199   201    1
   206   199   200    1
   207    30    33    1
   208    30    31    1
   209    32    31    2
   210    33    34    1
   211    31    36   am
   212    36    37    1
   213    39    38    2
   214    38    37    1
   215    37    40    1
   216    40    41    1
   217    43    41   ar
   218    41    42   ar
