@<TRIPOS>MOLECULE
tmp/1z82A01.pdb
 128 123 0 0 0
SMALL
GASTEIGER

@<TRIPOS>ATOM
      1  N         37.9500   32.8900   16.3060 N.3    96  LYS96      -0.1245
      2  CA        38.6740   32.7590   17.5620 C.3    96  LYS96       0.1561
      3  C         39.6700   31.6070   17.4440 C.2    96  LYS96       0.2260
      4  O         39.2700   30.4360   17.3300 O.2    96  LYS96      -0.2867
      5  CB        37.7000   32.5380   18.7280 C.3    96  LYS96       0.0271
      6  CG        36.6210   33.6400   18.9160 C.3    96  LYS96       0.0035
      7  CD        35.6820   33.3500   20.0650 C.3    96  LYS96       0.0206
      8  CE        34.6040   34.4220   20.1960 C.3    96  LYS96       0.1093
      9  NZ        33.5550   34.1380   21.2660 N.3    96  LYS96      -0.1314
     10  N         33.1290   37.9450   22.4750 N.3   123  GLY123     -0.1210
     11  CA        32.5470   37.9000   23.8030 C.3   123  GLY123      0.1940
     12  C         31.7210   36.6330   23.8980 C.2   123  GLY123      0.2454
     13  O         31.7270   35.8020   22.9880 O.2   123  GLY123     -0.2732
     14  N         30.9840   36.4840   24.9930 N.am  124  PRO124     -0.2717
     15  CA        30.0610   35.3480   25.1330 C.3   124  PRO124      0.1536
     16  C         28.8090   35.4500   24.2210 C.2   124  PRO124      0.2599
     17  O         27.8310   36.1060   24.5590 O.2   124  PRO124     -0.2715
     18  CB        29.6840   35.4050   26.6050 C.3   124  PRO124      0.0310
     19  CG        29.8530   36.8250   26.9890 C.3   124  PRO124      0.0237
     20  CD        30.9590   37.3810   26.1430 C.3   124  PRO124      0.0939
     21  N         28.8770   34.7710   23.0830 N.am  125  SER125     -0.1936
     22  CA        27.9490   34.9400   21.9890 C.3   125  SER125      0.2055
     23  C         27.7890   33.6390   21.2240 C.2   125  SER125      0.2643
     24  O         28.1960   33.5280   20.0410 O.2   125  SER125     -0.2714
     25  CB        28.4210   36.0800   21.0510 C.3   125  SER125      0.2130
     26  OG        29.5650   35.7190   20.2790 O.3   125  SER125     -0.2179
     27  N         27.1420   32.6660   21.8530 N.am  126  HIS126     -0.1973
     28  CA        26.7670   31.4690   21.1240 C.3   126  HIS126      0.1656
     29  C         25.7830   31.8540   20.0210 C.2   126  HIS126      0.2291
     30  O         24.7530   32.4820   20.2940 O.2   126  HIS126     -0.2864
     31  CB        26.1380   30.4270   22.0410 C.3   126  HIS126      0.0771
     32  CG        27.1230   29.7950   22.9700 C.ar  126  HIS126      0.0820
     33  ND1       28.1340   28.9650   22.5290 N.ar  126  HIS126     -0.2267
     34  CD2       27.2560   29.8770   24.3080 C.ar  126  HIS126      0.1154
     35  CE1       28.8680   28.5880   23.5620 C.ar  126  HIS126      0.1986
     36  NE2       28.3610   29.1280   24.6530 N.ar  126  HIS126     -0.2212
     37  N         40.2980   30.4780   25.2830 N.3   175  LYS175     -0.1231
     38  CA        39.2010   30.0230   26.1200 C.3   175  LYS175      0.1693
     39  C         38.5650   28.7450   25.6050 C.2   175  LYS175      0.2592
     40  O         37.9720   27.9920   26.3810 O.2   175  LYS175     -0.2718
     41  CB        38.1060   31.1070   26.3260 C.3   175  LYS175      0.0285
     42  CG        37.4070   31.6070   25.0820 C.3   175  LYS175      0.0035
     43  CD        36.1940   30.7430   24.6980 C.3   175  LYS175      0.0206
     44  CE        35.6710   31.1330   23.3370 C.3   175  LYS175      0.1093
     45  NZ        34.4650   30.3720   22.9460 N.3   175  LYS175     -0.1314
     46  N         38.6420   28.5370   24.2920 N.am  176  ASN176     -0.1974
     47  CA        38.3190   27.2820   23.7130 C.3   176  ASN176      0.1688
     48  C         39.1880   26.1520   24.1900 C.2   176  ASN176      0.2292
     49  O         38.7240   25.0430   24.3370 O.2   176  ASN176     -0.2864
     50  CB        38.3860   27.4300   22.2290 C.3   176  ASN176      0.1181
     51  CG        37.1860   28.1600   21.7270 C.2   176  ASN176      0.2629
     52  OD1       36.1870   28.1770   22.4100 O.2   176  ASN176     -0.2716
     53  ND2       37.2880   28.8120   20.6090 N.am  176  ASN176     -0.0877
     54  N         33.4230   35.1370   28.1260 N.3   226  ASP226     -0.1239
     55  CA        33.4780   34.1480   27.0730 C.3   226  ASP226      0.1674
     56  C         33.9070   32.8170   27.6420 C.2   226  ASP226      0.2266
     57  O         33.3570   31.7740   27.3100 O.2   226  ASP226     -0.2867
     58  CB        34.4530   34.6050   25.9770 C.3   226  ASP226      0.1410
     59  CG        34.1030   34.0270   24.5880 C.2   226  ASP226      0.3668
     60  OD1       33.2330   33.1330   24.5340 O.co2 226  ASP226     -0.2456
     61  OD2       34.7360   34.4250   23.5650 O.co2 226  ASP226     -0.2456
     62  N         30.7040   31.4020   29.4280 N.3   228  VAL228     -0.1231
     63  CA        29.6830   30.9000   28.5020 C.3   228  VAL228      0.1692
     64  C         30.1460   29.6320   27.7610 C.2   228  VAL228      0.2592
     65  O         29.3590   28.7600   27.4540 O.2   228  VAL228     -0.2718
     66  CB        29.1870   31.9630   27.5080 C.3   228  VAL228      0.0266
     67  CG1       30.0030   31.9830   26.2630 C.3   228  VAL228      0.0020
     68  CG2       27.7710   31.6890   27.2010 C.3   228  VAL228      0.0020
     69  N         31.4400   29.4970   27.5280 N.am  229  THR229     -0.1953
     70  CA        31.9240   28.3730   26.7780 C.3   229  THR229      0.1897
     71  C         32.0450   27.1140   27.6540 C.2   229  THR229      0.2313
     72  O         31.6210   26.0300   27.2500 O.2   229  THR229     -0.2863
     73  CB        33.2290   28.7560   26.0710 C.3   229  THR229      0.1794
     74  OG1       33.0310   29.9580   25.3270 O.3   229  THR229     -0.2208
     75  CG2       33.6910   27.6980   25.1140 C.3   229  THR229      0.0378
     76  N         25.7230   24.7060   24.3590 N.3   234  TYR234     -0.1227
     77  CA        25.9740   25.0560   22.9550 C.3   234  TYR234      0.1736
     78  C         27.4090   25.0020   22.5320 C.2   234  TYR234      0.2596
     79  O         27.6860   25.1900   21.3630 O.2   234  TYR234     -0.2718
     80  CB        25.4540   26.4650   22.6510 C.3   234  TYR234      0.0548
     81  CG        23.9790   26.6370   22.8000 C.ar  234  TYR234     -0.0200
     82  CD1       23.1160   25.9160   22.0110 C.ar  234  TYR234     -0.0009
     83  CD2       23.4380   27.5480   23.7090 C.ar  234  TYR234     -0.0009
     84  CE1       21.7470   26.0860   22.0960 C.ar  234  TYR234      0.0417
     85  CE2       22.0450   27.7060   23.7990 C.ar  234  TYR234      0.0417
     86  CZ        21.2280   26.9650   22.9930 C.ar  234  TYR234      0.1957
     87  OH        19.8510   27.0890   23.0390 O.3   234  TYR234     -0.2866
     88  N         28.3450   24.8150   23.4650 N.am  235  SER235     -0.1938
     89  CA        29.7610   24.9170   23.1550 C.3   235  SER235      0.2055
     90  C         30.3400   23.6500   22.5080 C.2   235  SER235      0.2643
     91  O         30.2540   22.5840   23.0950 O.2   235  SER235     -0.2714
     92  CB        30.5600   25.2110   24.4130 C.3   235  SER235      0.2130
     93  OG        31.9470   25.1480   24.1160 O.3   235  SER235     -0.2179
     94  N         30.9190   23.7800   21.3100 N.am  236  ARG236     -0.1963
     95  CA        31.4640   22.6400   20.5720 C.3   236  ARG236      0.1729
     96  C         32.7340   22.1730   21.2730 C.2   236  ARG236      0.2616
     97  O         33.0000   20.9670   21.4030 O.2   236  ARG236     -0.2715
     98  CB        31.7160   22.9580   19.0930 C.3   236  ARG236      0.0348
     99  CG        30.3900   23.0950   18.2340 C.3   236  ARG236      0.0492
    100  CD        29.6720   24.4790   18.2750 C.3   236  ARG236      0.2205
    101  NE        30.5580   25.6210   18.0270 N.pl3 236  ARG236     -0.0865
    102  CZ        31.0810   25.9860   16.8550 C.cat 236  ARG236      0.5346
    103  NH1       30.8000   25.3630   15.7480 N.pl3 236  ARG236      0.1354
    104  NH2       31.8960   27.0230   16.8060 N.pl3 236  ARG236      0.1354
    105  N         33.4720   23.1230   21.8010 N.am  237  ASN237     -0.1972
    106  CA        34.7000   22.7810   22.4940 C.3   237  ASN237      0.1688
    107  C         34.4110   22.0390   23.7900 C.2   237  ASN237      0.2292
    108  O         34.9850   21.0280   24.0090 O.2   237  ASN237     -0.2864
    109  CB        35.5210   24.0290   22.6940 C.3   237  ASN237      0.1181
    110  CG        36.1170   24.5270   21.4100 C.2   237  ASN237      0.2629
    111  OD1       37.2150   24.1280   21.0440 O.2   237  ASN237     -0.2716
    112  ND2       35.4170   25.4440   20.7340 N.am  237  ASN237     -0.0877
    113  N         33.5690   23.3180   13.2830 N.3   260  VAL260     -0.1245
    114  CA        34.9770   23.2800   13.6860 C.3   260  VAL260      0.1561
    115  C         35.0690   23.4310   15.1830 C.2   260  VAL260      0.2260
    116  O         34.3530   24.2320   15.7640 O.2   260  VAL260     -0.2867
    117  CB        35.8670   24.2980   12.8730 C.3   260  VAL260      0.0252
    118  CG1       37.2610   24.4440   13.4690 C.3   260  VAL260      0.0019
    119  CG2       36.0200   23.7860   11.4430 C.3   260  VAL260      0.0019
    120  N         37.5270   24.7690   17.4620 N.3   262  GLU262     -0.1245
    121  CA        38.7410   25.6150   17.3470 C.3   262  GLU262      0.1567
    122  C         39.8230   25.3000   18.3710 C.2   262  GLU262      0.2260
    123  O         41.0200   25.4160   18.0720 O.2   262  GLU262     -0.2867
    124  CB        38.3780   27.1030   17.4220 C.3   262  GLU262      0.0388
    125  CG        37.6860   27.5880   16.1340 C.3   262  GLU262      0.1160
    126  CD        38.6910   27.9690   14.9980 C.2   262  GLU262      0.3649
    127  OE1       39.7310   27.2600   14.7790 O.co2 262  GLU262     -0.2457
    128  OE2       38.4190   29.0130   14.3440 O.co2 262  GLU262     -0.2457
@<TRIPOS>BOND
     1   119   117    1
     2   117   118    1
     3   117   114    1
     4   113   114    1
     5   114   115    1
     6   128   126   ar
     7   127   126   ar
     8   126   125    1
     9   115   116    2
    10   103   102    1
    11   125   124    1
    12     1     2    1
    13   104   102    1
    14   102   101    2
    15     4     3    2
    16   121   124    1
    17   121   120    1
    18   121   122    1
    19     3     2    1
    20     2     5    1
    21   101   100    1
    22   123   122    2
    23    99   100    1
    24    99    98    1
    25     5     6    1
    26     6     7    1
    27    98    95    1
    28    29    30    2
    29    29    28    1
    30    24    23    2
    31     7     8    1
    32     8     9    1
    33    26    25    1
    34    95    96    1
    35    95    94    1
    36    53    51   am
    37   112   110   am
    38   111   110    2
    39    25    22    1
    40    28    27    1
    41    28    31    1
    42    23    27   am
    43    23    22    1
    44    96    97    2
    45    96   105   am
    46    94    90   am
    47    79    78    2
    48   110   109    1
    49    51    50    1
    50    51    52    2
    51   105   106    1
    52    22    21    1
    53    82    84   ar
    54    82    81   ar
    55    31    32    1
    56    84    86   ar
    57    50    47    1
    58    10    11    1
    59   106   109    1
    60   106   107    1
    61    90    91    2
    62    90    89    1
    63    33    32   ar
    64    33    35   ar
    65    78    77    1
    66    78    88   am
    67    80    81    1
    68    80    77    1
    69    81    83   ar
    70    45    44    1
    71    77    76    1
    72    32    34   ar
    73    13    12    2
    74    86    87    1
    75    86    85   ar
    76    21    16   am
    77    89    88    1
    78    89    92    1
    79    44    43    1
    80    35    36   ar
    81    61    59   ar
    82    83    85   ar
    83    47    48    1
    84    47    46    1
    85   107   108    2
    86    11    12    1
    87    12    14   am
    88    93    92    1
    89    48    49    2
    90    16    17    2
    91    16    15    1
    92    46    39   am
    93    34    36   ar
    94    60    59   ar
    95    59    58    1
    96    43    42    1
    97    14    15    1
    98    14    20    1
    99    42    41    1
   100    75    73    1
   101    15    18    1
   102    37    38    1
   103    74    73    1
   104    39    38    1
   105    39    40    2
   106    58    55    1
   107    73    70    1
   108    38    41    1
   109    20    19    1
   110    67    66    1
   111    18    19    1
   112    70    69    1
   113    70    71    1
   114    55    56    1
   115    55    54    1
   116    68    66    1
   117    72    71    2
   118    57    56    2
   119    65    64    2
   120    66    63    1
   121    69    64   am
   122    64    63    1
   123    63    62    1
