@<TRIPOS>MOLECULE
tmp/1z82A02.pdb
 103 94 0 0 0
SMALL
GASTEIGER

@<TRIPOS>ATOM
      1  N         39.0430   21.2000   28.4240 N.3   181  ALA181     -0.1245
      2  CA        39.3350   20.7080   29.7670 C.3   181  ALA181      0.1562
      3  C         38.0870   20.7140   30.6680 C.2   181  ALA181      0.2260
      4  O         37.8720   19.7660   31.4170 O.2   181  ALA181     -0.2867
      5  CB        40.4530   21.5260   30.3890 C.3   181  ALA181      0.0290
      6  N         35.7260   17.8190   29.6860 N.3   184  ILE184     -0.1231
      7  CA        36.2080   16.5680   30.2310 C.3   184  ILE184      0.1692
      8  C         35.5630   16.3100   31.6010 C.2   184  ILE184      0.2591
      9  O         35.1100   15.2050   31.8700 O.2   184  ILE184     -0.2718
     10  CB        37.7110   16.5200   30.2590 C.3   184  ILE184      0.0266
     11  CG1       38.2080   16.2960   28.8390 C.3   184  ILE184      0.0019
     12  CG2       38.2150   15.3680   31.1080 C.3   184  ILE184      0.0020
     13  CD1       39.6580   16.6240   28.6420 C.3   184  ILE184      0.0001
     14  N         35.4770   17.3480   32.4300 N.am  185  LEU185     -0.1980
     15  CA        34.8790   17.2220   33.7590 C.3   185  LEU185      0.1596
     16  C         33.3990   16.9070   33.7010 C.2   185  LEU185      0.2287
     17  O         32.8670   16.1780   34.5400 O.2   185  LEU185     -0.2864
     18  CB        35.1080   18.5070   34.5600 C.3   185  LEU185      0.0297
     19  CG        36.5710   18.7530   34.8790 C.3   185  LEU185      0.0022
     20  CD1       36.7570   20.1570   35.3960 C.3   185  LEU185      0.0001
     21  CD2       37.0270   17.7560   35.9170 C.3   185  LEU185      0.0001
     22  N         33.0630   13.2630   32.9260 N.3   188  PHE188     -0.1241
     23  CA        33.1840   12.4530   34.1490 C.3   188  PHE188      0.1605
     24  C         31.8800   12.3770   34.9470 C.2   188  PHE188      0.2264
     25  O         31.7450   11.5760   35.8360 O.2   188  PHE188     -0.2867
     26  CB        34.2630   12.9860   35.0980 C.3   188  PHE188      0.0534
     27  CG        35.6750   12.9530   34.5530 C.ar  188  PHE188     -0.0203
     28  CD1       36.0430   12.1360   33.4900 C.ar  188  PHE188     -0.0042
     29  CD2       36.6520   13.7410   35.1460 C.ar  188  PHE188     -0.0042
     30  CE1       37.3690   12.1140   33.0250 C.ar  188  PHE188     -0.0003
     31  CE2       37.9960   13.7140   34.6920 C.ar  188  PHE188     -0.0003
     32  CZ        38.3340   12.9090   33.6210 C.ar  188  PHE188     -0.0000
     33  N         39.0700   24.9370   37.9020 N.3   198  LEU198     -0.1245
     34  CA        39.6970   24.9280   36.5630 C.3   198  LEU198      0.1561
     35  C         39.5190   26.2540   35.8410 C.2   198  LEU198      0.2260
     36  O         40.4470   26.7690   35.2260 O.2   198  LEU198     -0.2867
     37  CB        39.0480   23.8700   35.6520 C.3   198  LEU198      0.0270
     38  CG        39.5690   23.8200   34.2050 C.3   198  LEU198      0.0019
     39  CD1       41.0410   23.3710   34.2580 C.3   198  LEU198      0.0001
     40  CD2       38.7750   22.8860   33.3100 C.3   198  LEU198      0.0001
     41  N         47.4480   23.6260   31.8470 N.3   281  ILE281     -0.1245
     42  CA        46.1350   23.1840   31.3600 C.3   281  ILE281      0.1561
     43  C         46.2160   22.9260   29.8740 C.2   281  ILE281      0.2260
     44  O         45.6850   21.9290   29.4030 O.2   281  ILE281     -0.2867
     45  CB        45.0300   24.2220   31.6120 C.3   281  ILE281      0.0252
     46  CG1       44.9230   24.5750   33.1200 C.3   281  ILE281      0.0019
     47  CG2       43.6560   23.7490   31.0360 C.3   281  ILE281      0.0019
     48  CD1       43.9840   25.7720   33.3990 C.3   281  ILE281      0.0001
     49  N         47.9690   19.6870   29.0550 N.3   284  GLU284     -0.1231
     50  CA        47.1680   18.4800   29.3040 C.3   284  GLU284      0.1699
     51  C         46.0950   18.2910   28.2290 C.2   284  GLU284      0.2592
     52  O         45.8200   17.1670   27.7790 O.2   284  GLU284     -0.2718
     53  CB        46.5750   18.5020   30.7260 C.3   284  GLU284      0.0402
     54  CG        47.6980   18.3600   31.7920 C.3   284  GLU284      0.1161
     55  CD        48.4530   17.0320   31.7490 C.2   284  GLU284      0.3649
     56  OE1       47.8130   16.0030   31.4690 O.co2 284  GLU284     -0.2457
     57  OE2       49.7020   17.0180   32.0230 O.co2 284  GLU284     -0.2457
     58  N         45.4890   19.3880   27.8070 N.am  285  VAL285     -0.1980
     59  CA        44.4920   19.2960   26.7420 C.3   285  VAL285      0.1595
     60  C         45.2040   18.7980   25.4690 C.2   285  VAL285      0.2287
     61  O         44.7110   17.9210   24.8150 O.2   285  VAL285     -0.2864
     62  CB        43.8690   20.6440   26.4770 C.3   285  VAL285      0.0276
     63  CG1       43.0510   20.5970   25.1920 C.3   285  VAL285      0.0022
     64  CG2       43.0560   21.1430   27.6890 C.3   285  VAL285      0.0022
     65  N         45.8010   15.0490   25.8660 N.3   288  VAL288     -0.1245
     66  CA        44.5780   14.2550   25.7840 C.3   288  VAL288      0.1561
     67  C         44.1260   14.1690   24.3270 C.2   288  VAL288      0.2260
     68  O         43.7690   13.0900   23.8380 O.2   288  VAL288     -0.2867
     69  CB        43.4540   14.8300   26.6660 C.3   288  VAL288      0.0252
     70  CG1       42.0840   14.2410   26.2870 C.3   288  VAL288      0.0019
     71  CG2       43.7620   14.6280   28.1510 C.3   288  VAL288      0.0019
     72  N         42.0350   10.7310   29.9640 N.3   295  PRO295     -0.2116
     73  CA        41.5360   11.9040   30.6730 C.3   295  PRO295      0.1372
     74  C         41.7060   11.8820   32.1910 C.2   295  PRO295      0.2244
     75  O         42.0850   12.8950   32.7620 O.2   295  PRO295     -0.2868
     76  CB        40.0650   11.9740   30.2440 C.3   295  PRO295      0.0268
     77  CG        40.0730   11.3210   28.9070 C.3   295  PRO295      0.0207
     78  CD        41.0840   10.2470   28.9570 C.3   295  PRO295      0.0892
     79  N         45.2040   12.5670   33.2200 N.3   298  SER298     -0.1217
     80  CA        45.4050   13.9970   32.9760 C.3   298  SER298      0.1889
     81  C         44.8970   14.8410   34.1480 C.2   298  SER298      0.2288
     82  O         45.5960   15.7430   34.6610 O.2   298  SER298     -0.2866
     83  CB        44.7130   14.4360   31.6940 C.3   298  SER298      0.2089
     84  OG        45.3390   15.5950   31.2180 O.3   298  SER298     -0.2183
     85  N         44.4900   13.9880   37.3100 N.3   299  ARG299     -0.1245
     86  CA        45.3220   13.8200   38.5030 C.3   299  ARG299      0.1563
     87  C         46.6280   14.5480   38.4300 C.2   299  ARG299      0.2260
     88  O         47.0890   15.0990   39.4120 O.2   299  ARG299     -0.2867
     89  CB        45.6700   12.3610   38.7050 C.3   299  ARG299      0.0307
     90  CG        44.4940   11.5080   39.0680 C.3   299  ARG299      0.0489
     91  CD        44.8830   10.0470   39.0610 C.3   299  ARG299      0.2205
     92  NE        43.8520    9.2170   39.6740 N.pl3 299  ARG299     -0.0865
     93  CZ        43.8920    7.8870   39.7230 C.cat 299  ARG299      0.5346
     94  NH1       44.9140    7.2170   39.1740 N.pl3 299  ARG299      0.1354
     95  NH2       42.9010    7.2230   40.3210 N.pl3 299  ARG299      0.1354
     96  N         47.3030   17.2190   36.6030 N.3   301  LEU301     -0.1245
     97  CA        47.0610   18.6370   36.6860 C.3   301  LEU301      0.1561
     98  C         46.8170   19.1160   38.1110 C.2   301  LEU301      0.2260
     99  O         47.0300   20.2680   38.4260 O.2   301  LEU301     -0.2867
    100  CB        45.8760   18.9880   35.8180 C.3   301  LEU301      0.0270
    101  CG        45.6520   20.4590   35.5050 C.3   301  LEU301      0.0019
    102  CD1       46.9110   21.0910   34.9480 C.3   301  LEU301      0.0001
    103  CD2       44.4740   20.5840   34.5130 C.3   301  LEU301      0.0001
@<TRIPOS>BOND
     1    68    67    2
     2    67    66    1
     3    61    60    2
     4    63    62    1
     5    60    59    1
     6    66    65    1
     7    66    69    1
     8    70    69    1
     9    62    59    1
    10    62    64    1
    11    69    71    1
    12    59    58    1
    13    52    51    2
    14    58    51   am
    15    51    50    1
    16     1     2    1
    17    13    11    1
    18    11    10    1
    19    77    78    1
    20    77    76    1
    21    78    72    1
    22    49    50    1
    23    50    53    1
    24    44    43    2
    25     6     7    1
    26     2     5    1
    27     2     3    1
    28    43    42    1
    29    72    73    1
    30     7    10    1
    31     7     8    1
    32    76    73    1
    33    10    12    1
    34     3     4    2
    35    73    74    1
    36    53    54    1
    37    47    45    1
    38    84    83    1
    39    42    45    1
    40    42    41    1
    41    56    55   ar
    42     8     9    2
    43     8    14   am
    44    45    46    1
    45    83    80    1
    46    55    54    1
    47    55    57   ar
    48    74    75    2
    49    14    15    1
    50    22    23    1
    51    80    79    1
    52    80    81    1
    53    30    28   ar
    54    30    32   ar
    55    46    48    1
    56    40    38    1
    57    28    27   ar
    58    32    31   ar
    59    16    15    1
    60    16    17    2
    61    15    18    1
    62    81    82    2
    63    23    24    1
    64    23    26    1
    65    38    39    1
    66    38    37    1
    67   103   101    1
    68    27    26    1
    69    27    29   ar
    70    18    19    1
    71    31    29   ar
    72    19    20    1
    73    19    21    1
    74    24    25    2
    75   102   101    1
    76    36    35    2
    77   101   100    1
    78    37    34    1
    79   100    97    1
    80    35    34    1
    81    34    33    1
    82    96    97    1
    83    97    98    1
    84    85    86    1
    85    98    99    2
    86    87    86    1
    87    87    88    2
    88    86    89    1
    89    89    90    1
    90    91    90    1
    91    91    92    1
    92    94    93    1
    93    92    93    2
    94    93    95    1
