@<TRIPOS>MOLECULE
tmp/1z82A05.pdb
 85 79 0 0 0
SMALL
GASTEIGER

@<TRIPOS>ATOM
      1  N         30.9190   23.7800   21.3100 N.3   236  ARG236     -0.1245
      2  CA        31.4640   22.6400   20.5720 C.3   236  ARG236      0.1563
      3  C         32.7340   22.1730   21.2730 C.2   236  ARG236      0.2260
      4  O         33.0000   20.9670   21.4030 O.2   236  ARG236     -0.2867
      5  CB        31.7160   22.9580   19.0930 C.3   236  ARG236      0.0307
      6  CG        30.3900   23.0950   18.2340 C.3   236  ARG236      0.0489
      7  CD        29.6720   24.4790   18.2750 C.3   236  ARG236      0.2205
      8  NE        30.5580   25.6210   18.0270 N.pl3 236  ARG236     -0.0865
      9  CZ        31.0810   25.9860   16.8550 C.cat 236  ARG236      0.5346
     10  NH1       30.8000   25.3630   15.7480 N.pl3 236  ARG236      0.1354
     11  NH2       31.8960   27.0230   16.8060 N.pl3 236  ARG236      0.1354
     12  N         31.6680   20.3190   24.4690 N.3   239  ARG239     -0.1231
     13  CA        31.1280   19.0160   23.9970 C.3   239  ARG239      0.1694
     14  C         32.2290   18.0350   23.5410 C.2   239  ARG239      0.2592
     15  O         32.1870   16.8270   23.8210 O.2   239  ARG239     -0.2718
     16  CB        30.1210   19.3000   22.8560 C.3   239  ARG239      0.0321
     17  CG        29.3650   18.1030   22.2630 C.3   239  ARG239      0.0489
     18  CD        28.6310   17.3520   23.3210 C.3   239  ARG239      0.2205
     19  NE        27.6590   16.3910   22.7810 N.pl3 239  ARG239     -0.0865
     20  CZ        26.9130   15.5910   23.5380 C.cat 239  ARG239      0.5346
     21  NH1       26.9840   15.6480   24.8560 N.pl3 239  ARG239      0.1354
     22  NH2       26.0520   14.7410   22.9750 N.pl3 239  ARG239      0.1354
     23  N         33.2400   18.5560   22.8640 N.am  240  PHE240     -0.1976
     24  CA        34.3610   17.7470   22.4010 C.3   240  PHE240      0.1639
     25  C         35.0590   17.0990   23.6040 C.2   240  PHE240      0.2290
     26  O         35.2780   15.8960   23.6270 O.2   240  PHE240     -0.2864
     27  CB        35.3060   18.6410   21.6020 C.3   240  PHE240      0.0560
     28  CG        36.5000   17.9490   21.0560 C.ar  240  PHE240     -0.0200
     29  CD1       36.3660   16.8550   20.1780 C.ar  240  PHE240     -0.0042
     30  CD2       37.7710   18.4200   21.3460 C.ar  240  PHE240     -0.0042
     31  CE1       37.5030   16.2280   19.6520 C.ar  240  PHE240     -0.0003
     32  CE2       38.8750   17.8010   20.8310 C.ar  240  PHE240     -0.0003
     33  CZ        38.7430   16.7120   19.9680 C.ar  240  PHE240     -0.0000
     34  N         32.8830   14.3270   25.2200 N.3   243  LEU243     -0.1245
     35  CA        32.8240   13.0560   24.5040 C.3   243  LEU243      0.1561
     36  C         34.1330   12.2790   24.6210 C.2   243  LEU243      0.2260
     37  O         34.1400   11.0380   24.7230 O.2   243  LEU243     -0.2867
     38  CB        32.4450   13.2820   23.0580 C.3   243  LEU243      0.0270
     39  CG        31.0510   13.9060   22.9060 C.3   243  LEU243      0.0019
     40  CD1       30.7990   14.3460   21.4490 C.3   243  LEU243      0.0001
     41  CD2       29.9380   12.9870   23.4010 C.3   243  LEU243      0.0001
     42  N         36.0880   12.0500   16.3590 N.3   253  LEU253     -0.1231
     43  CA        35.1010   13.0520   16.7280 C.3   253  LEU253      0.1693
     44  C         35.1830   14.2510   15.7970 C.2   253  LEU253      0.2591
     45  O         34.1560   14.7440   15.3570 O.2   253  LEU253     -0.2718
     46  CB        35.2720   13.5260   18.1730 C.3   253  LEU253      0.0284
     47  CG        34.7910   12.6120   19.2800 C.3   253  LEU253      0.0019
     48  CD1       35.3390   13.1000   20.6320 C.3   253  LEU253      0.0001
     49  CD2       33.2830   12.5670   19.3020 C.3   253  LEU253      0.0001
     50  N         36.3910   14.6980   15.5000 N.am  254  LEU254     -0.1980
     51  CA        36.5890   15.8590   14.6490 C.3   254  LEU254      0.1596
     52  C         36.0010   15.6220   13.2420 C.2   254  LEU254      0.2287
     53  O         35.1880   16.4320   12.7460 O.2   254  LEU254     -0.2864
     54  CB        38.0810   16.2400   14.6080 C.3   254  LEU254      0.0297
     55  CG        38.6490   16.7900   15.9320 C.3   254  LEU254      0.0022
     56  CD1       40.1330   17.0940   15.8590 C.3   254  LEU254      0.0001
     57  CD2       37.8880   18.0250   16.3770 C.3   254  LEU254      0.0001
     58  N         33.6100   13.7350   12.5130 N.3   256  SER256     -0.1202
     59  CA        32.1660   13.4530   12.5850 C.3   256  SER256      0.2020
     60  C         31.3020   14.6880   12.3030 C.2   256  SER256      0.2619
     61  O         30.1070   14.5290   12.0020 O.2   256  SER256     -0.2717
     62  CB        31.7610   12.8870   13.9620 C.3   256  SER256      0.2103
     63  OG        31.4920   13.9340   14.9000 O.3   256  SER256     -0.2182
     64  N         31.8710   15.9010   12.4480 N.am  257  SER257     -0.1951
     65  CA        31.0930   17.1230   12.1870 C.3   257  SER257      0.1924
     66  C         31.6730   18.0170   11.1140 C.2   257  SER257      0.2314
     67  O         32.8920   18.0020   10.8760 O.2   257  SER257     -0.2863
     68  CB        30.8940   17.9580   13.4460 C.3   257  SER257      0.2116
     69  OG        29.7540   18.8040   13.2920 O.3   257  SER257     -0.2180
     70  N         31.0510   21.2580   11.6440 N.3   259  GLN259     -0.1245
     71  CA        31.4670   22.3430   12.5330 C.3   259  GLN259      0.1566
     72  C         32.9190   22.1930   12.9900 C.2   259  GLN259      0.2260
     73  O         33.4460   21.0780   13.0660 O.2   259  GLN259     -0.2867
     74  CB        30.5450   22.3840   13.7310 C.3   259  GLN259      0.0367
     75  CG        29.1270   22.7890   13.3470 C.3   259  GLN259      0.0905
     76  CD        28.2620   23.0690   14.5680 C.2   259  GLN259      0.2608
     77  OE1       28.6860   23.7050   15.5220 O.2   259  GLN259     -0.2717
     78  NE2       27.0540   22.5910   14.5340 N.am  259  GLN259     -0.0878
     79  N         35.9120   22.5980   15.8010 N.3   261  VAL261     -0.1245
     80  CA        36.2620   22.6910   17.2360 C.3   261  VAL261      0.1561
     81  C         37.5860   23.4400   17.3420 C.2   261  VAL261      0.2260
     82  O         38.6480   22.8340   17.3110 O.2   261  VAL261     -0.2867
     83  CB        36.3870   21.2600   17.8690 C.3   261  VAL261      0.0252
     84  CG1       36.8190   21.3360   19.3370 C.3   261  VAL261      0.0019
     85  CG2       35.0840   20.4860   17.7170 C.3   261  VAL261      0.0019
@<TRIPOS>BOND
     1    67    66    2
     2    66    65    1
     3    70    71    1
     4    61    60    2
     5    65    64    1
     6    65    68    1
     7    60    64   am
     8    60    59    1
     9    58    59    1
    10    71    72    1
    11    71    74    1
    12    59    62    1
    13    53    52    2
    14    72    73    2
    15    52    51    1
    16    69    68    1
    17    75    74    1
    18    75    76    1
    19    62    63    1
    20    78    76   am
    21    76    77    2
    22    54    51    1
    23    54    55    1
    24    51    50    1
    25    45    44    2
    26    50    44   am
    27    10     9    1
    28    44    43    1
    29    79    80    1
    30    56    55    1
    31    55    57    1
    32    42    43    1
    33    43    46    1
    34    11     9    1
    35     9     8    2
    36    80    81    1
    37    80    83    1
    38    82    81    2
    39    85    83    1
    40    83    84    1
    41     8     7    1
    42    46    47    1
    43     6     7    1
    44     6     5    1
    45     5     2    1
    46    47    49    1
    47    47    48    1
    48    31    33   ar
    49    31    29   ar
    50    33    32   ar
    51    29    28   ar
    52     2     3    1
    53     2     1    1
    54    32    30   ar
    55    28    30   ar
    56    28    27    1
    57     3     4    2
    58    40    39    1
    59    27    24    1
    60    17    16    1
    61    17    18    1
    62    24    23    1
    63    24    25    1
    64    19    18    1
    65    19    20    2
    66    16    13    1
    67    23    14   am
    68    39    38    1
    69    39    41    1
    70    22    20    1
    71    38    35    1
    72    20    21    1
    73    14    15    2
    74    14    13    1
    75    25    26    2
    76    13    12    1
    77    35    36    1
    78    35    34    1
    79    36    37    2
