@<TRIPOS>MOLECULE
tmp/1z89A01.pdb
 195 198 0 0 0
SMALL
GASTEIGER

@<TRIPOS>ATOM
      1  N         15.3880   -8.7210   25.5350 N.3    21  TRP21      -0.1241
      2  CA        15.8810   -9.3830   24.3380 C.3    21  TRP21       0.1605
      3  C         16.9370  -10.4150   24.7410 C.2    21  TRP21       0.2264
      4  O         17.9200  -10.0630   25.4070 O.2    21  TRP21      -0.2867
      5  CB        16.4420   -8.4140   23.3090 C.3    21  TRP21       0.0550
      6  CG        17.0740   -9.0170   22.0980 C.ar   21  TRP21       0.0003
      7  CD1       16.6100  -10.0960   21.3970 C.ar   21  TRP21       0.0946
      8  CD2       18.2690   -8.5960   21.4440 C.ar   21  TRP21       0.0152
      9  NE1       17.4510  -10.3700   20.3340 N.ar   21  TRP21      -0.2442
     10  CE2       18.4670   -9.4690   20.3500 C.ar   21  TRP21       0.0810
     11  CE3       19.1810   -7.5630   21.6760 C.ar   21  TRP21       0.0012
     12  CZ2       19.5560   -9.3430   19.4910 C.ar   21  TRP21       0.0191
     13  CZ3       20.2570   -7.4370   20.8270 C.ar   21  TRP21       0.0001
     14  CH2       20.4170   -8.3180   19.7620 C.ar   21  TRP21       0.0015
     15  N          8.7100  -10.1810   19.0160 N.3    48  VAL48      -0.1231
     16  CA         9.7420  -10.8760   18.2520 C.3    48  VAL48       0.1692
     17  C         10.7530  -11.4920   19.2120 C.2    48  VAL48       0.2592
     18  O         11.5050  -12.3580   18.7350 O.2    48  VAL48      -0.2718
     19  CB        10.4580   -9.9320   17.2820 C.3    48  VAL48       0.0266
     20  CG1       11.4070   -9.0560   18.0940 C.3    48  VAL48       0.0020
     21  CG2       11.2470  -10.6660   16.2030 C.3    48  VAL48       0.0020
     22  N         10.8040  -11.1260   20.5010 N.am   49  TYR49      -0.1976
     23  CA        11.7150  -11.7560   21.4530 C.3    49  TYR49       0.1639
     24  C         11.2130  -13.1310   21.8770 C.2    49  TYR49       0.2290
     25  O         12.0000  -13.9040   22.4650 O.2    49  TYR49      -0.2864
     26  CB        11.8980  -10.9050   22.7240 C.3    49  TYR49       0.0560
     27  CG        12.4400   -9.5220   22.4730 C.ar   49  TYR49      -0.0198
     28  CD1       13.0050   -9.1710   21.2550 C.ar   49  TYR49      -0.0009
     29  CD2       12.3830   -8.5130   23.4360 C.ar   49  TYR49      -0.0009
     30  CE1       13.4920   -7.8800   21.0650 C.ar   49  TYR49       0.0417
     31  CE2       12.8520   -7.2300   23.2420 C.ar   49  TYR49       0.0417
     32  CZ        13.4200   -6.8990   22.0370 C.ar   49  TYR49       0.1957
     33  OH        13.8870   -5.6240   21.8320 O.3    49  TYR49      -0.2866
     34  N          6.2160   -5.7250   15.4180 N.3    80  TRP80      -0.1227
     35  CA         7.2580   -6.3380   14.5820 C.3    80  TRP80       0.1737
     36  C          6.9920   -5.9840   13.1240 C.2    80  TRP80       0.2592
     37  O          5.8910   -5.6120   12.7250 O.2    80  TRP80      -0.2718
     38  CB         7.3880   -7.8560   14.8340 C.3    80  TRP80       0.0564
     39  CG         8.5460   -8.3630   13.9800 C.ar   80  TRP80       0.0003
     40  CD1        8.4690   -9.2370   12.9290 C.ar   80  TRP80       0.0946
     41  CD2        9.9100   -7.9320   14.1080 C.ar   80  TRP80       0.0152
     42  NE1        9.7170   -9.3980   12.4100 N.ar   80  TRP80      -0.2442
     43  CE2       10.6190   -8.6290   13.1040 C.ar   80  TRP80       0.0810
     44  CE3       10.6080   -7.0630   14.9640 C.ar   80  TRP80       0.0012
     45  CZ2       11.9940   -8.4790   12.9330 C.ar   80  TRP80       0.0191
     46  CZ3       11.9720   -6.9040   14.8070 C.ar   80  TRP80       0.0001
     47  CH2       12.6180   -7.6120   13.8000 C.ar   80  TRP80       0.0015
     48  N          7.9890   -6.0490   12.2610 N.am   81  CYS81      -0.2023
     49  CA         8.0410   -5.6020   10.9070 C.3    81  CYS81       0.1398
     50  C          7.0590   -6.3520   10.0120 C.3    81  CYS81       0.2045
     51  O          6.7000   -5.7270    9.0120 O.3    81  CYS81      -0.2185
     52  CB         9.4500   -5.7480   10.3600 C.3    81  CYS81       0.0930
     53  SG        10.7340   -4.9380   11.3390 S.3    81  CYS81      -0.0802
     54  N          8.7200   -1.2140   15.8500 N.3   111  HIS111     -0.1226
     55  CA        10.0380   -1.7610   16.2500 C.3   111  HIS111      0.1752
     56  C         11.1440   -1.2880   15.3100 C.2   111  HIS111      0.2596
     57  O         12.2520   -0.9540   15.7960 O.2   111  HIS111     -0.2718
     58  CB         9.9040   -3.2740   16.3290 C.3   111  HIS111      0.0759
     59  CG        10.9290   -3.9430   17.1740 C.ar  111  HIS111      0.0818
     60  ND1       10.6940   -5.1430   17.7960 N.ar  111  HIS111     -0.2268
     61  CD2       12.1980   -3.6210   17.4750 C.ar  111  HIS111      0.1154
     62  CE1       11.7830   -5.4990   18.4620 C.ar  111  HIS111      0.1986
     63  NE2       12.7300   -4.5950   18.2900 N.ar  111  HIS111     -0.2212
     64  N         10.8630   -1.2460   14.0120 N.am  112  TRP112     -0.1976
     65  CA        11.7550   -0.7900   12.9630 C.3   112  TRP112      0.1640
     66  C         10.9830   -0.0380   11.8860 C.2   112  TRP112      0.2290
     67  O          9.8100   -0.3620   11.6890 O.2   112  TRP112     -0.2864
     68  CB        12.4720   -1.9700   12.2850 C.3   112  TRP112      0.0576
     69  CG        13.4900   -2.6180   13.1960 C.ar  112  TRP112      0.0006
     70  CD1       13.2420   -3.6110   14.0900 C.ar  112  TRP112      0.0946
     71  CD2       14.8890   -2.3220   13.3000 C.ar  112  TRP112      0.0152
     72  NE1       14.3740   -3.9800   14.7670 N.ar  112  TRP112     -0.2442
     73  CE2       15.3960   -3.1930   14.2910 C.ar  112  TRP112      0.0810
     74  CE3       15.7700   -1.4360   12.6970 C.ar  112  TRP112      0.0012
     75  CZ2       16.7480   -3.1830   14.6630 C.ar  112  TRP112      0.0191
     76  CZ3       17.1000   -1.4290   13.0670 C.ar  112  TRP112      0.0001
     77  CH2       17.5880   -2.3020   14.0520 C.ar  112  TRP112      0.0015
     78  N         11.2110   -0.4130    8.7950 N.3   114  THR114     -0.1218
     79  CA        11.0300   -1.3190    7.6800 C.3   114  THR114      0.1862
     80  C          9.8830   -2.2860    7.8300 C.2   114  THR114      0.2287
     81  O          9.8470   -3.1460    8.7460 O.2   114  THR114     -0.2866
     82  CB        12.2720   -2.2200    7.5170 C.3   114  THR114      0.1770
     83  OG1       12.5480   -2.8220    8.7890 O.3   114  THR114     -0.2211
     84  CG2       13.4750   -1.3880    7.1410 C.3   114  THR114      0.0375
     85  N          7.9070   -5.6670    6.4660 N.3   116  PHE116     -0.1241
     86  CA         8.1940   -6.9170    5.7560 C.3   116  PHE116      0.1605
     87  C          6.8940   -7.6240    5.3760 C.2   116  PHE116      0.2264
     88  O          5.8770   -7.3340    6.0210 O.2   116  PHE116     -0.2867
     89  CB         8.9950   -7.8510    6.6240 C.3   116  PHE116      0.0534
     90  CG        10.3230   -7.4640    7.2240 C.ar  116  PHE116     -0.0203
     91  CD1       11.0560   -6.3650    6.7970 C.ar  116  PHE116     -0.0042
     92  CD2       10.7720   -8.2870    8.2640 C.ar  116  PHE116     -0.0042
     93  CE1       12.2610   -6.0750    7.4180 C.ar  116  PHE116     -0.0003
     94  CE2       11.9870   -8.0130    8.8680 C.ar  116  PHE116     -0.0003
     95  CZ        12.6960   -6.9150    8.4240 C.ar  116  PHE116     -0.0000
     96  N         11.4210  -12.9160    9.4500 N.3   123  PHE123     -0.1241
     97  CA        12.2490  -12.3680    8.3750 C.3   123  PHE123      0.1605
     98  C         11.9490  -13.2020    7.1180 C.2   123  PHE123      0.2264
     99  O         12.6780  -14.1530    6.7890 O.2   123  PHE123     -0.2867
    100  CB        13.7260  -12.4440    8.7210 C.3   123  PHE123      0.0534
    101  CG        14.2130  -11.4290    9.7350 C.ar  123  PHE123     -0.0203
    102  CD1       14.7590  -10.2160    9.3500 C.ar  123  PHE123     -0.0042
    103  CD2       14.0940  -11.7180   11.0760 C.ar  123  PHE123     -0.0042
    104  CE1       15.2280   -9.3040   10.2730 C.ar  123  PHE123     -0.0003
    105  CE2       14.5820  -10.8330   12.0150 C.ar  123  PHE123     -0.0003
    106  CZ        15.1330   -9.6230   11.6130 C.ar  123  PHE123     -0.0000
    107  N         14.5370    2.8180   16.2020 N.3   161  ASN161     -0.1240
    108  CA        15.4620    2.7240   15.0790 C.3   161  ASN161      0.1653
    109  C         15.0660    3.5750   13.8960 C.2   161  ASN161      0.2266
    110  O         15.3130    3.2230   12.7450 O.2   161  ASN161     -0.2867
    111  CB        15.5580    1.2820   14.6030 C.3   161  ASN161      0.1155
    112  CG        16.0340    0.3960   15.7220 C.2   161  ASN161      0.2627
    113  OD1       17.1710    0.5160   16.1950 O.2   161  ASN161     -0.2716
    114  ND2       15.1610   -0.5150   16.1310 N.am  161  ASN161     -0.0877
    115  N         19.0630    1.7820   24.0140 N.3   210  TYR210     -0.1241
    116  CA        19.1810    0.3340   24.1000 C.3   210  TYR210      0.1605
    117  C         20.6250   -0.1560   23.9540 C.2   210  TYR210      0.2264
    118  O         21.4370    0.6560   23.4930 O.2   210  TYR210     -0.2867
    119  CB        18.2600   -0.3260   23.0980 C.3   210  TYR210      0.0534
    120  CG        18.4400   -0.4790   21.6280 C.ar  210  TYR210     -0.0201
    121  CD1       19.5000   -1.1880   21.0580 C.ar  210  TYR210     -0.0009
    122  CD2       17.5650    0.0480   20.6930 C.ar  210  TYR210     -0.0009
    123  CE1       19.7010   -1.3450   19.7020 C.ar  210  TYR210      0.0417
    124  CE2       17.6830   -0.0940   19.3380 C.ar  210  TYR210      0.0417
    125  CZ        18.7660   -0.8100   18.8580 C.ar  210  TYR210      0.1957
    126  OH        18.9330   -0.9760   17.5170 O.3   210  TYR210     -0.2866
    127  N         25.9300  -12.3550   17.3090 N.3   220  TRP220     -0.1241
    128  CA        26.9370  -12.2110   16.2570 C.3   220  TRP220      0.1605
    129  C         28.2240  -11.5870   16.7570 C.2   220  TRP220      0.2264
    130  O         28.9940  -11.0900   15.9340 O.2   220  TRP220     -0.2867
    131  CB        26.4140  -11.3510   15.1020 C.3   220  TRP220      0.0550
    132  CG        25.7340  -10.0800   15.5240 C.ar  220  TRP220      0.0003
    133  CD1       26.3060   -8.8740   15.7600 C.ar  220  TRP220      0.0946
    134  CD2       24.3330   -9.9130   15.7480 C.ar  220  TRP220      0.0152
    135  NE1       25.3510   -7.9420   16.1240 N.ar  220  TRP220     -0.2442
    136  CE2       24.1330   -8.5680   16.1230 C.ar  220  TRP220      0.0810
    137  CE3       23.2330  -10.7720   15.6670 C.ar  220  TRP220      0.0012
    138  CZ2       22.8740   -8.0420   16.4240 C.ar  220  TRP220      0.0191
    139  CZ3       21.9920  -10.2380   15.9700 C.ar  220  TRP220      0.0001
    140  CH2       21.8170   -8.9000   16.3400 C.ar  220  TRP220      0.0015
    141  N         23.4230   -3.3660   16.5520 N.3   299  CYS299     -0.1221
    142  CA        22.2570   -3.7750   15.8210 C.3   299  CYS299      0.1808
    143  C         22.1590   -3.1130   14.4400 C.2   299  CYS299      0.2601
    144  O         21.6490   -1.9930   14.3410 O.2   299  CYS299     -0.2717
    145  CB        20.9880   -3.3780   16.5860 C.3   299  CYS299      0.0970
    146  SG        20.5330   -4.5440   17.8760 S.3   299  CYS299     -0.0800
    147  N         22.6290   -3.8800   13.4860 N.am  300  ALA300     -0.1965
    148  CA        22.6320   -3.6480   12.0520 C.3   300  ALA300      0.1728
    149  C         22.4030   -4.9930   11.3770 C.2   300  ALA300      0.2616
    150  O         22.7280   -6.0500   11.9420 O.2   300  ALA300     -0.2715
    151  CB        23.9530   -3.0070   11.6440 C.3   300  ALA300      0.0334
    152  N         21.8340   -5.0100   10.1720 N.am  301  LEU301     -0.1977
    153  CA        21.5290   -6.2990    9.5760 C.3   301  LEU301      0.1596
    154  C         21.4990   -6.3030    8.0550 C.2   301  LEU301      0.2287
    155  O         20.6170   -5.6760    7.4830 O.2   301  LEU301     -0.2864
    156  CB        20.1360   -6.7480   10.0450 C.3   301  LEU301      0.0297
    157  CG        19.8830   -8.2490    9.9990 C.3   301  LEU301      0.0022
    158  CD1       20.8190   -8.9810   10.9560 C.3   301  LEU301      0.0001
    159  CD2       18.4280   -8.5430   10.3300 C.3   301  LEU301      0.0001
    160  N         18.6640   -6.7070    5.6240 N.3   304  CYS304     -0.1235
    161  CA        17.7420   -5.5990    5.3540 C.3   304  CYS304      0.1677
    162  C         18.3500   -4.3410    4.7710 C.2   304  CYS304      0.2270
    163  O         17.6840   -3.3060    4.6230 O.2   304  CYS304     -0.2867
    164  CB        17.0210   -5.2280    6.6600 C.3   304  CYS304      0.0956
    165  SG        16.0600   -6.5960    7.3670 S.3   304  CYS304     -0.0801
    166  N         15.4880    1.1620    5.1540 N.3   310  TYR310     -0.1228
    167  CA        16.6020    0.8250    6.0300 C.3   310  TYR310      0.1721
    168  C         17.1540    2.0840    6.6850 C.2   310  TYR310      0.2437
    169  O         17.4890    3.0720    6.0110 O.2   310  TYR310     -0.2733
    170  CB        17.7080    0.1250    5.2390 C.3   310  TYR310      0.0547
    171  CG        18.8460   -0.3290    6.1210 C.ar  310  TYR310     -0.0200
    172  CD1       18.6730   -1.4750    6.8760 C.ar  310  TYR310     -0.0009
    173  CD2       20.0450    0.3600    6.1770 C.ar  310  TYR310     -0.0009
    174  CE1       19.6650   -1.9660    7.7100 C.ar  310  TYR310      0.0417
    175  CE2       21.0410   -0.1150    7.0030 C.ar  310  TYR310      0.0417
    176  CZ        20.8420   -1.2480    7.7510 C.ar  310  TYR310      0.1957
    177  OH        21.8670   -1.7000    8.5600 O.3   310  TYR310     -0.2866
    178  N         17.2400    2.1950    8.0150 N.am  311  PRO311     -0.2718
    179  CA        17.5440    3.5010    8.6180 C.3   311  PRO311      0.1535
    180  C         19.0010    3.9110    8.6610 C.2   311  PRO311      0.2598
    181  O         19.2680    5.0620    8.9710 O.2   311  PRO311     -0.2715
    182  CB        17.0410    3.3160   10.0570 C.3   311  PRO311      0.0310
    183  CG        17.2470    1.8650   10.2990 C.3   311  PRO311      0.0237
    184  CD        16.9680    1.1490    9.0070 C.3   311  PRO311      0.0939
    185  N         19.9700    3.0150    8.3980 N.am  312  PHE312     -0.1974
    186  CA        21.3160    3.4260    8.7650 C.3   312  PHE312      0.1639
    187  C         22.2640    3.7220    7.6120 C.2   312  PHE312      0.2290
    188  O         23.4860    3.6500    7.8220 O.2   312  PHE312     -0.2864
    189  CB        21.9370    2.3550    9.6730 C.3   312  PHE312      0.0560
    190  CG        21.1020    1.9770   10.9020 C.ar  312  PHE312     -0.0200
    191  CD1       20.4530    2.9640   11.6260 C.ar  312  PHE312     -0.0042
    192  CD2       21.0070    0.6570   11.2800 C.ar  312  PHE312     -0.0042
    193  CE1       19.6830    2.6270   12.7360 C.ar  312  PHE312     -0.0003
    194  CE2       20.2290    0.2800   12.3850 C.ar  312  PHE312     -0.0003
    195  CZ        19.5750    1.2980   13.0810 C.ar  312  PHE312     -0.0000
@<TRIPOS>BOND
     1   163   162    2
     2   162   161    1
     3   166   167    1
     4   170   167    1
     5   170   171    1
     6   161   160    1
     7   161   164    1
     8    87    86    1
     9    87    88    2
    10    86    85    1
    11    86    89    1
    12   169   168    2
    13   167   168    1
    14   171   173   ar
    15   171   172   ar
    16   173   175   ar
    17    89    90    1
    18   164   165    1
    19   168   178   am
    20    99    98    2
    21    91    90   ar
    22    91    93   ar
    23   172   174   ar
    24   175   176   ar
    25    98    97    1
    26    84    82    1
    27    90    92   ar
    28    93    95   ar
    29   155   154    2
    30    82    79    1
    31    82    83    1
    32   187   188    2
    33   187   186    1
    34    79    80    1
    35    79    78    1
    36   174   176   ar
    37   176   177    1
    38    80    81    2
    39   178   179    1
    40   178   184    1
    41   154   153    1
    42    92    94   ar
    43    97   100    1
    44    97    96    1
    45   185   180   am
    46   185   186    1
    47    95    94   ar
    48   179   180    1
    49   179   182    1
    50   180   181    2
    51   100   101    1
    52   186   189    1
    53   184   183    1
    54    51    50    1
    55   102   101   ar
    56   102   104   ar
    57   153   156    1
    58   153   152    1
    59   189   190    1
    60   101   103   ar
    61   157   156    1
    62   157   159    1
    63   157   158    1
    64    50    49    1
    65   182   183    1
    66   152   149   am
    67   104   106   ar
    68    52    49    1
    69    52    53    1
    70   190   192   ar
    71   190   191   ar
    72    49    48    1
    73   103   105   ar
    74   192   194   ar
    75   149   150    2
    76   149   148    1
    77   106   105   ar
    78   191   193   ar
    79   151   148    1
    80    67    66    2
    81    66    65    1
    82   148   147    1
    83    48    36   am
    84    68    65    1
    85    68    69    1
    86   194   195   ar
    87    42    40   ar
    88    42    43   ar
    89    74    76   ar
    90    74    71   ar
    91    37    36    2
    92   193   195   ar
    93   110   109    2
    94    40    39   ar
    95    45    43   ar
    96    45    47   ar
    97    65    64    1
    98    76    77   ar
    99    43    41   ar
   100    36    35    1
   101    69    71   ar
   102    69    70   ar
   103    71    73   ar
   104   147   143   am
   105    47    46   ar
   106   109   108    1
   107    39    41   ar
   108    39    38    1
   109    64    56   am
   110    77    75   ar
   111    70    72   ar
   112    41    44   ar
   113    73    75   ar
   114    73    72   ar
   115   144   143    2
   116   143   142    1
   117    35    38    1
   118    35    34    1
   119   111   108    1
   120   111   112    1
   121    46    44   ar
   122   108   107    1
   123   131   132    1
   124   131   128    1
   125    56    57    2
   126    56    55    1
   127   132   134   ar
   128   132   133   ar
   129   137   134   ar
   130   137   139   ar
   131   112   114   am
   132   112   113    2
   133   134   136   ar
   134   133   135   ar
   135   142   141    1
   136   142   145    1
   137    54    55    1
   138   130   129    2
   139   139   140   ar
   140   136   135   ar
   141   136   138   ar
   142    21    19    1
   143    55    58    1
   144   128   129    1
   145   128   127    1
   146    58    59    1
   147   140   138   ar
   148   145   146    1
   149    59    61   ar
   150    59    60   ar
   151    19    20    1
   152    19    16    1
   153    61    63   ar
   154   126   125    1
   155    60    62   ar
   156    16    15    1
   157    16    17    1
   158    63    62   ar
   159    18    17    2
   160   125   124   ar
   161   125   123   ar
   162    17    22   am
   163   124   122   ar
   164    12    14   ar
   165    12    10   ar
   166   123   121   ar
   167    14    13   ar
   168     9    10   ar
   169     9     7   ar
   170    10     8   ar
   171    22    23    1
   172   122   120   ar
   173    13    11   ar
   174   121   120   ar
   175    30    28   ar
   176    30    32   ar
   177    28    27   ar
   178     7     6   ar
   179     8    11   ar
   180     8     6   ar
   181    23    24    1
   182    23    26    1
   183   120   119    1
   184    33    32    1
   185    24    25    2
   186    32    31   ar
   187     6     5    1
   188    27    26    1
   189    27    29   ar
   190   119   116    1
   191    31    29   ar
   192     5     2    1
   193   118   117    2
   194   117   116    1
   195   115   116    1
   196     2     3    1
   197     2     1    1
   198     3     4    2
