@<TRIPOS>MOLECULE
tmp/1z8cB00.pdb
 111 104 0 0 0
SMALL
GASTEIGER

@<TRIPOS>ATOM
      1  N          3.6290   34.6700   41.0900 N.3     8  ARG8       -0.1245
      2  CA         4.3870   34.1580   39.9370 C.3     8  ARG8        0.1563
      3  C          4.2570   35.0490   38.6890 C.2     8  ARG8        0.2260
      4  O          3.1520   35.4420   38.3150 O.2     8  ARG8       -0.2867
      5  CB         3.9320   32.7370   39.6280 C.3     8  ARG8        0.0307
      6  CG         4.3840   31.7380   40.6590 C.3     8  ARG8        0.0489
      7  CD         3.3850   30.6370   40.7840 C.3     8  ARG8        0.2205
      8  NE         3.9280   29.4970   41.5160 N.pl3   8  ARG8       -0.0865
      9  CZ         3.1910   28.4770   41.9430 C.cat   8  ARG8        0.5346
     10  NH1        1.8820   28.4740   41.7240 N.pl3   8  ARG8        0.1354
     11  NH2        3.7620   27.4400   42.5380 N.pl3   8  ARG8        0.1354
     12  N          5.4510   31.3810   32.2730 N.3    23  LEU23      -0.1245
     13  CA         6.1790   31.9590   33.3870 C.3    23  LEU23       0.1561
     14  C          7.4890   32.6020   32.8890 C.2    23  LEU23       0.2260
     15  O          8.2380   31.9710   32.1250 O.2    23  LEU23      -0.2867
     16  CB         6.4770   30.8330   34.3950 C.3    23  LEU23       0.0270
     17  CG         7.1980   31.0570   35.7350 C.3    23  LEU23       0.0019
     18  CD1        6.3090   31.8360   36.7210 C.3    23  LEU23       0.0001
     19  CD2        7.5680   29.6850   36.3070 C.3    23  LEU23       0.0001
     20  N         10.8930   33.2220   33.5750 N.3    25  ASP25      -0.1239
     21  CA        11.8560   32.5990   34.4630 C.3    25  ASP25       0.1674
     22  C         13.2990   32.9780   34.1510 C.2    25  ASP25       0.2266
     23  O         13.8640   32.4890   33.1800 O.2    25  ASP25      -0.2867
     24  CB        11.6570   31.0820   34.3390 C.3    25  ASP25       0.1410
     25  CG        12.4230   30.3100   35.3600 C.2    25  ASP25       0.3668
     26  OD1       13.4080   30.8600   35.8760 O.co2  25  ASP25      -0.2456
     27  OD2       12.0450   29.1560   35.6300 O.co2  25  ASP25      -0.2456
     28  N         15.7670   32.1220   35.8230 N.3    27  GLY27      -0.1210
     29  CA        16.6320   31.0300   36.2180 C.3    27  GLY27       0.1956
     30  C         16.7210   29.9310   35.1650 C.2    27  GLY27       0.2612
     31  O         17.4750   28.9860   35.3310 O.2    27  GLY27      -0.2717
     32  N         15.9440   30.0390   34.0900 N.am   28  ALA28      -0.1965
     33  CA        15.9630   29.0380   33.0270 C.3    28  ALA28       0.1728
     34  C         16.8240   29.5420   31.8570 C.2    28  ALA28       0.2616
     35  O         16.6210   30.6730   31.3660 O.2    28  ALA28      -0.2715
     36  CB        14.5530   28.7690   32.5690 C.3    28  ALA28       0.0334
     37  N         17.7890   28.7250   31.4200 N.am   29  ASP29      -0.1957
     38  CA        18.6570   29.1240   30.3080 C.3    29  ASP29       0.1840
     39  C         17.8660   29.0330   29.0330 C.2    29  ASP29       0.2622
     40  O         18.1110   29.7760   28.0820 O.2    29  ASP29      -0.2715
     41  CB        19.8390   28.1760   30.1060 C.3    29  ASP29       0.1450
     42  CG        20.7660   28.1030   31.2880 C.2    29  ASP29       0.3671
     43  OD1       20.8820   29.1000   32.0270 O.co2  29  ASP29      -0.2456
     44  OD2       21.4030   27.0350   31.4540 O.co2  29  ASP29      -0.2456
     45  N         16.9230   28.0940   29.0380 N.am   30  ASP30      -0.1971
     46  CA        16.1010   27.7840   27.8810 C.3    30  ASP30       0.1709
     47  C         14.6200   27.9370   28.1360 C.2    30  ASP30       0.2293
     48  O         14.1840   28.1690   29.2630 O.2    30  ASP30      -0.2864
     49  CB        16.3770   26.3340   27.4370 C.3    30  ASP30       0.1436
     50  CG        17.8620   25.9830   27.4940 C.2    30  ASP30       0.3671
     51  OD1       18.6450   26.6190   26.7530 O.co2  30  ASP30      -0.2456
     52  OD2       18.2480   25.0900   28.2870 O.co2  30  ASP30      -0.2456
     53  N         11.0140   26.0870   27.8900 N.3    32  VAL32      -0.1245
     54  CA        10.4110   24.7620   27.9090 C.3    32  VAL32       0.1561
     55  C          8.8850   24.8980   27.9920 C.2    32  VAL32       0.2260
     56  O          8.3550   25.4690   28.9410 O.2    32  VAL32      -0.2867
     57  CB        10.9040   23.9590   29.1320 C.3    32  VAL32       0.0252
     58  CG1       10.6450   22.4580   28.9090 C.3    32  VAL32       0.0019
     59  CG2       12.3620   24.2330   29.3590 C.3    32  VAL32       0.0019
     60  N         17.1930   18.2910   29.1310 N.3    47  ILE47      -0.1231
     61  CA        17.5690   19.4460   29.9250 C.3    47  ILE47       0.1692
     62  C         17.4090   19.0550   31.3860 C.2    47  ILE47       0.2593
     63  O         16.5940   18.1940   31.7170 O.2    47  ILE47      -0.2718
     64  CB        16.6990   20.6860   29.6020 C.3    47  ILE47       0.0266
     65  CG1       15.2210   20.3080   29.5380 C.3    47  ILE47       0.0019
     66  CG2       17.1810   21.3200   28.3300 C.3    47  ILE47       0.0020
     67  CD1       14.3340   21.4720   29.1210 C.3    47  ILE47       0.0001
     68  N         18.2110   19.6640   32.2510 N.am   48  GLY48      -0.1942
     69  CA        18.1240   19.3590   33.6630 C.3    48  GLY48       0.2014
     70  C         17.6560   20.5130   34.5270 C.2    48  GLY48       0.2639
     71  O         17.9110   21.6760   34.2240 O.2    48  GLY48      -0.2714
     72  N         16.9610   20.1920   35.6110 N.am   49  GLY49      -0.1939
     73  CA        16.4970   21.2150   36.5240 C.3    49  GLY49       0.2014
     74  C         16.6530   20.7540   37.9600 C.2    49  GLY49       0.2638
     75  O         17.4850   19.8950   38.2660 O.2    49  GLY49      -0.2714
     76  N         15.8640   21.3420   38.8490 N.am   50  ILE50      -0.1977
     77  CA        15.8790   20.9630   40.2580 C.3    50  ILE50       0.1596
     78  C         15.7360   19.4830   40.6220 C.2    50  ILE50       0.2287
     79  O         16.4820   18.9890   41.4740 O.2    50  ILE50      -0.2864
     80  CB        14.8520   21.8150   41.0700 C.3    50  ILE50       0.0276
     81  CG1       15.4880   23.1540   41.4320 C.3    50  ILE50       0.0022
     82  CG2       14.4450   21.1130   42.3540 C.3    50  ILE50       0.0022
     83  CD1       16.6710   23.0160   42.3540 C.3    50  ILE50       0.0001
     84  N          6.6910   19.2290   30.9090 N.3    79  THR79      -0.1204
     85  CA         6.8640   20.2470   31.9400 C.3    79  THR79       0.1979
     86  C          5.4890   20.5470   32.5500 C.2    79  THR79       0.2460
     87  O          4.4570   20.4260   31.8870 O.2    79  THR79      -0.2732
     88  CB         7.4950   21.5780   31.3780 C.3    79  THR79       0.1783
     89  OG1        7.5950   22.5400   32.4360 O.3    79  THR79      -0.2211
     90  CG2        6.6490   22.1700   30.2400 C.3    79  THR79       0.0376
     91  N          5.4550   20.8570   33.8540 N.am   80  PRO80      -0.2717
     92  CA         4.1910   21.1760   34.5260 C.3    80  PRO80       0.1535
     93  C          3.6360   22.4710   33.9260 C.2    80  PRO80       0.2599
     94  O          2.4250   22.6280   33.7340 O.2    80  PRO80      -0.2715
     95  CB         4.6140   21.3720   35.9690 C.3    80  PRO80       0.0310
     96  CG         5.7940   20.4160   36.1150 C.3    80  PRO80       0.0237
     97  CD         6.5440   20.6130   34.8260 C.3    80  PRO80       0.0939
     98  N          4.5330   23.4050   33.6180 N.am   81  THR81      -0.1951
     99  CA         4.1040   24.6740   33.0570 C.3    81  THR81       0.1897
    100  C          5.0700   25.2890   32.0570 C.2    81  THR81       0.2313
    101  O          6.2520   24.9410   32.0100 O.2    81  THR81      -0.2863
    102  CB         3.8420   25.7040   34.1700 C.3    81  THR81       0.1794
    103  OG1        3.8650   27.0340   33.6190 O.3    81  THR81      -0.2208
    104  CG2        4.8800   25.5890   35.2330 C.3    81  THR81       0.0378
    105  N          7.5960   27.7110   30.5240 N.3    83  VAL83      -0.1245
    106  CA         8.6870   28.4950   31.0710 C.3    83  VAL83       0.1561
    107  C          9.3560   29.2890   29.9520 C.2    83  VAL83       0.2260
    108  O          9.7990   28.6940   28.9770 O.2    83  VAL83      -0.2867
    109  CB         9.7220   27.5510   31.7080 C.3    83  VAL83       0.0252
    110  CG1       10.9630   28.3110   32.1160 C.3    83  VAL83       0.0019
    111  CG2        9.1070   26.8500   32.8930 C.3    83  VAL83       0.0019
@<TRIPOS>BOND
     1    51    50   ar
     2    49    50    1
     3    49    46    1
     4    50    52   ar
     5    46    47    1
     6    46    45    1
     7    53    54    1
     8    54    55    1
     9    54    57    1
    10    55    56    2
    11    40    39    2
    12    47    48    2
    13    66    64    1
    14    58    57    1
    15   108   107    2
    16    39    45   am
    17    39    38    1
    18    67    65    1
    19    60    61    1
    20    57    59    1
    21    65    64    1
    22    64    61    1
    23    61    62    1
    24   107   106    1
    25    41    38    1
    26    41    42    1
    27    90    88    1
    28    38    37    1
    29   105   106    1
    30    84    85    1
    31   106   109    1
    32    42    44   ar
    33    42    43   ar
    34    35    34    2
    35    88    85    1
    36    88    89    1
    37    62    63    2
    38    62    68   am
    39    37    34   am
    40   109   110    1
    41   109   111    1
    42    34    33    1
    43    87    86    2
    44    85    86    1
    45   101   100    2
    46   100    99    1
    47    15    14    2
    48    68    69    1
    49    12    13    1
    50    86    91   am
    51    36    33    1
    52    14    13    1
    53    33    32    1
    54    99    98    1
    55    99   102    1
    56    23    22    2
    57    13    16    1
    58    20    21    1
    59    98    93   am
    60   103   102    1
    61    69    70    1
    62    94    93    2
    63    91    92    1
    64    91    97    1
    65    93    92    1
    66    32    30   am
    67    22    21    1
    68   102   104    1
    69    71    70    2
    70    24    21    1
    71    24    25    1
    72    16    17    1
    73    92    95    1
    74    70    72   am
    75    97    96    1
    76    30    31    2
    77    30    29    1
    78    25    27   ar
    79    25    26   ar
    80    72    73    1
    81    17    19    1
    82    17    18    1
    83    28    29    1
    84    95    96    1
    85    73    74    1
    86    74    75    2
    87    74    76   am
    88     4     3    2
    89     3     2    1
    90    76    77    1
    91     5     2    1
    92     5     6    1
    93     2     1    1
    94    77    78    1
    95    77    80    1
    96    78    79    2
    97     6     7    1
    98     7     8    1
    99    80    81    1
   100    80    82    1
   101    81    83    1
   102     8     9    2
   103    10     9    1
   104     9    11    1
