@<TRIPOS>MOLECULE
tmp/1z8gA00.pdb
 222 217 0 0 0
SMALL
GASTEIGER

@<TRIPOS>ATOM
      1  N         39.8190    7.8960   29.6980 N.3   136  LEU136     -0.1231
      2  CA        39.4990    6.6430   30.3770 C.3   136  LEU136      0.1693
      3  C         38.8180    5.6320   29.4760 C.2   136  LEU136      0.2592
      4  O         39.0020    4.4210   29.6300 O.2   136  LEU136     -0.2718
      5  CB        38.6040    6.9070   31.5860 C.3   136  LEU136      0.0284
      6  CG        39.2120    7.7450   32.7100 C.3   136  LEU136      0.0019
      7  CD1       38.2180    7.8420   33.8550 C.3   136  LEU136      0.0001
      8  CD2       40.5040    7.1020   33.1840 C.3   136  LEU136      0.0001
      9  N         38.0310    6.1280   28.5320 N.am  137  CYS137     -0.1970
     10  CA        37.3100    5.2450   27.6350 C.3   137  CYS137      0.1712
     11  C         37.1260    5.8190   26.2480 C.2   137  CYS137      0.2296
     12  O         37.2050    7.0320   26.0420 O.2   137  CYS137     -0.2864
     13  CB        35.9460    4.9130   28.2280 C.3   137  CYS137      0.0983
     14  SG        35.9690    3.5990   29.4850 S.3   137  CYS137     -0.0798
     15  N         30.8850   -0.0150   32.1520 N.3   152  HIS152     -0.1241
     16  CA        31.9710   -0.0850   33.1260 C.3   152  HIS152      0.1621
     17  C         32.8650    1.1520   33.1210 C.2   152  HIS152      0.2264
     18  O         33.7560    1.2850   33.9560 O.2   152  HIS152     -0.2867
     19  CB        32.7900   -1.3790   32.9770 C.3   152  HIS152      0.0745
     20  CG        33.9050   -1.2970   31.9810 C.ar  152  HIS152      0.0817
     21  ND1       33.8900   -2.0060   30.8000 N.ar  152  HIS152     -0.2268
     22  CD2       35.1410   -0.7520   32.0770 C.ar  152  HIS152      0.1154
     23  CE1       35.0670   -1.8970   30.2090 C.ar  152  HIS152      0.1986
     24  NE2       35.8450   -1.1410   30.9630 N.ar  152  HIS152     -0.2212
     25  N         23.6620   -4.3650   34.0610 N.3   192  TYR192     -0.1241
     26  CA        25.1010   -4.4450   34.2700 C.3   192  TYR192      0.1605
     27  C         25.3050   -4.5060   35.7800 C.2   192  TYR192      0.2264
     28  O         25.3860   -3.4840   36.4500 O.2   192  TYR192     -0.2867
     29  CB        25.8270   -3.2350   33.6750 C.3   192  TYR192      0.0534
     30  CG        27.3280   -3.3620   33.7860 C.ar  192  TYR192     -0.0201
     31  CD1       28.0080   -4.3810   33.1160 C.ar  192  TYR192     -0.0009
     32  CD2       28.0610   -2.5150   34.6160 C.ar  192  TYR192     -0.0009
     33  CE1       29.3760   -4.5580   33.2750 C.ar  192  TYR192      0.0417
     34  CE2       29.4320   -2.6840   34.7840 C.ar  192  TYR192      0.0417
     35  CZ        30.0800   -3.7120   34.1120 C.ar  192  TYR192      0.1957
     36  OH        31.4220   -3.9260   34.3110 O.3   192  TYR192     -0.2866
     37  N         27.8740   -5.1640   37.8790 N.3   194  PRO194     -0.2116
     38  CA        28.9890   -4.5070   38.5690 C.3   194  PRO194      0.1372
     39  C         28.7840   -3.0140   38.8350 C.2   194  PRO194      0.2244
     40  O         29.5800   -2.4040   39.5450 O.2   194  PRO194     -0.2868
     41  CB        30.1680   -4.7480   37.6270 C.3   194  PRO194      0.0268
     42  CG        29.8240   -6.0360   36.9760 C.3   194  PRO194      0.0207
     43  CD        28.3540   -5.8720   36.6800 C.3   194  PRO194      0.0892
     44  N         31.6680  -10.3300   39.1320 N.3   201  GLU201     -0.1245
     45  CA        32.4560  -10.7790   37.9920 C.3   201  GLU201      0.1567
     46  C         31.5790  -10.9800   36.7570 C.2   201  GLU201      0.2260
     47  O         32.0690  -11.3400   35.6920 O.2   201  GLU201     -0.2867
     48  CB        33.1730  -12.0910   38.3330 C.3   201  GLU201      0.0388
     49  CG        34.0160  -12.0470   39.6060 C.3   201  GLU201      0.1160
     50  CD        35.1870  -11.0890   39.5090 C.2   201  GLU201      0.3649
     51  OE1       34.9540   -9.8630   39.4700 O.co2 201  GLU201     -0.2457
     52  OE2       36.3430  -11.5620   39.4800 O.co2 201  GLU201     -0.2457
     53  N         29.9560   -9.6550   33.8160 N.3   203  ASN203     -0.1240
     54  CA        30.0470   -8.4620   32.9820 C.3   203  ASN203      0.1653
     55  C         29.0760   -8.3070   31.8200 C.2   203  ASN203      0.2266
     56  O         29.2910   -7.4580   30.9560 O.2   203  ASN203     -0.2867
     57  CB        31.4770   -8.2940   32.4650 C.3   203  ASN203      0.1155
     58  CG        32.4700   -8.0570   33.5760 C.2   203  ASN203      0.2627
     59  OD1       33.5110   -8.7090   33.6420 O.2   203  ASN203     -0.2716
     60  ND2       32.1540   -7.1160   34.4580 N.am  203  ASN203     -0.0877
     61  N         27.3860   -4.7940   29.2550 N.3   206  ASP206     -0.1239
     62  CA        28.3500   -3.7080   29.4050 C.3   206  ASP206      0.1674
     63  C         28.0980   -2.7110   28.2820 C.2   206  ASP206      0.2266
     64  O         28.7760   -2.7210   27.2520 O.2   206  ASP206     -0.2867
     65  CB        29.7780   -4.2520   29.3270 C.3   206  ASP206      0.1410
     66  CG        30.8110   -3.2500   29.7960 C.2   206  ASP206      0.3668
     67  OD1       30.4200   -2.1830   30.3130 O.co2 206  ASP206     -0.2456
     68  OD2       32.0190   -3.5370   29.6620 O.co2 206  ASP206     -0.2456
     69  N         49.8750   -3.9920   27.3210 N.3   250  TYR250     -0.1241
     70  CA        49.2630   -3.9850   28.6420 C.3   250  TYR250      0.1605
     71  C         50.0300   -3.1390   29.6580 C.2   250  TYR250      0.2264
     72  O         49.4290   -2.3700   30.4130 O.2   250  TYR250     -0.2867
     73  CB        49.0650   -5.4000   29.1800 C.3   250  TYR250      0.0534
     74  CG        48.3200   -5.4170   30.4940 C.ar  250  TYR250     -0.0201
     75  CD1       46.9510   -5.6730   30.5420 C.ar  250  TYR250     -0.0009
     76  CD2       48.9820   -5.1520   31.6910 C.ar  250  TYR250     -0.0009
     77  CE1       46.2590   -5.6620   31.7570 C.ar  250  TYR250      0.0417
     78  CE2       48.3030   -5.1400   32.9060 C.ar  250  TYR250      0.0417
     79  CZ        46.9470   -5.3950   32.9330 C.ar  250  TYR250      0.1957
     80  OH        46.2870   -5.3860   34.1390 O.3   250  TYR250     -0.2866
     81  N         33.1170  -18.3300   29.7500 N.3   280  GLN280     -0.1245
     82  CA        32.9450  -16.9700   30.2570 C.3   280  GLN280      0.1566
     83  C         32.2920  -16.0190   29.2560 C.2   280  GLN280      0.2260
     84  O         31.9320  -14.8980   29.6120 O.2   280  GLN280     -0.2867
     85  CB        34.2850  -16.3920   30.7190 C.3   280  GLN280      0.0367
     86  CG        34.8830  -17.0780   31.9390 C.3   280  GLN280      0.0905
     87  CD        36.2300  -16.4930   32.3310 C.2   280  GLN280      0.2608
     88  OE1       36.3470  -15.7940   33.3390 O.2   280  GLN280     -0.2717
     89  NE2       37.2540  -16.7740   31.5330 N.am  280  GLN280     -0.0878
     90  N         27.6310  -11.1940   24.1570 N.3   285  MET285     -0.1245
     91  CA        29.0760  -10.9460   24.1830 C.3   285  MET285      0.1570
     92  C         29.6700  -11.7500   23.0330 C.2   285  MET285      0.2261
     93  O         29.1040  -12.7600   22.6210 O.2   285  MET285     -0.2867
     94  CB        29.7330  -11.5090   25.4490 C.3   285  MET285      0.0387
     95  CG        29.5310  -10.7690   26.7420 C.3   285  MET285      0.0595
     96  SD        30.5530  -11.6150   27.9810 S.3   285  MET285     -0.1393
     97  CE        29.7570  -11.0870   29.4900 C.3   285  MET285      0.0692
     98  N         45.0780   -6.6700   19.5140 N.3   296  ASP296     -0.1225
     99  CA        43.9180   -6.7020   20.3960 C.3   296  ASP296      0.1805
    100  C         43.6590   -5.3080   20.9710 C.2   296  ASP296      0.2598
    101  O         44.4490   -4.3880   20.7640 O.2   296  ASP296     -0.2718
    102  CB        44.2850   -7.6690   21.5340 C.3   296  ASP296      0.1424
    103  CG        43.1280   -8.0260   22.4440 C.2   296  ASP296      0.3668
    104  OD1       41.9570   -7.7060   22.1550 O.co2 296  ASP296     -0.2456
    105  OD2       43.4170   -8.6760   23.4690 O.co2 296  ASP296     -0.2456
    106  N         42.5160   -5.1460   21.6330 N.am  297  ALA297     -0.1966
    107  CA        42.1840   -3.8920   22.2960 C.3   297  ALA297      0.1728
    108  C         42.8270   -4.0180   23.6820 C.2   297  ALA297      0.2616
    109  O         43.4130   -5.0540   24.0040 O.2   297  ALA297     -0.2715
    110  CB        40.6710   -3.7380   22.4160 C.3   297  ALA297      0.0334
    111  N         42.6920   -2.9970   24.5200 N.am  298  CYS298     -0.1954
    112  CA        43.3050   -3.0500   25.8450 C.3   298  CYS298      0.1843
    113  C         42.6610   -2.0180   26.7590 C.2   298  CYS298      0.2625
    114  O         41.6850   -1.3780   26.3790 O.2   298  CYS298     -0.2714
    115  CB        44.8070   -2.7800   25.7160 C.3   298  CYS298      0.0997
    116  SG        45.8360   -3.4320   27.0690 S.3   298  CYS298     -0.0797
    117  N         43.1810   -1.8720   27.9750 N.am  299  GLN299     -0.1963
    118  CA        42.6300   -0.8800   28.8900 C.3   299  GLN299      0.1733
    119  C         42.7220    0.4960   28.2420 C.2   299  GLN299      0.2616
    120  O         43.6630    0.7770   27.4940 O.2   299  GLN299     -0.2715
    121  CB        43.3830   -0.8830   30.2260 C.3   299  GLN299      0.0408
    122  CG        42.9400   -1.9730   31.1980 C.3   299  GLN299      0.0908
    123  CD        43.2010   -3.3730   30.6800 C.2   299  GLN299      0.2608
    124  OE1       44.2670   -3.6580   30.1320 O.2   299  GLN299     -0.2717
    125  NE2       42.2290   -4.2590   30.8610 N.am  299  GLN299     -0.0878
    126  N         41.7100    1.3200   28.4810 N.am  300  GLY300     -0.1955
    127  CA        41.6310    2.6080   27.8160 C.3   300  GLY300      0.1869
    128  C         40.8560    2.5590   26.5130 C.2   300  GLY300      0.2309
    129  O         40.5180    3.5990   25.9550 O.2   300  GLY300     -0.2863
    130  N         38.0260    0.5160   26.2210 N.3   302  SER302     -0.1217
    131  CA        36.6390    0.1800   26.5230 C.3   302  SER302      0.1889
    132  C         35.6380    1.2320   26.0820 C.2   302  SER302      0.2288
    133  O         35.8910    2.4270   26.1890 O.2   302  SER302     -0.2866
    134  CB        36.4660   -0.0990   28.0070 C.3   302  SER302      0.2089
    135  OG        37.1440   -1.2920   28.3530 O.3   302  SER302     -0.2183
    136  N         34.1190   -2.3610   22.8600 N.3   324  VAL324     -0.1231
    137  CA        35.2320   -2.9470   23.6170 C.3   324  VAL324      0.1692
    138  C         34.7920   -3.1260   25.0720 C.2   324  VAL324      0.2593
    139  O         34.3930   -2.1570   25.7140 O.2   324  VAL324     -0.2718
    140  CB        36.4830   -2.0390   23.5780 C.3   324  VAL324      0.0266
    141  CG1       37.5870   -2.6330   24.4440 C.3   324  VAL324      0.0020
    142  CG2       36.9700   -1.8630   22.1420 C.3   324  VAL324      0.0020
    143  N         34.8640   -4.3550   25.5860 N.am  325  SER325     -0.1938
    144  CA        34.4360   -4.6310   26.9580 C.3   325  SER325      0.2055
    145  C         35.5000   -5.1780   27.9140 C.2   325  SER325      0.2643
    146  O         35.8010   -4.5480   28.9240 O.2   325  SER325     -0.2714
    147  CB        33.2250   -5.5700   26.9570 C.3   325  SER325      0.2130
    148  OG        32.7420   -5.7650   28.2750 O.3   325  SER325     -0.2179
    149  N         36.0450   -6.3580   27.6250 N.am  326  TRP326     -0.1959
    150  CA        37.0530   -6.9400   28.5090 C.3   326  TRP326      0.1771
    151  C         37.9750   -7.9500   27.8350 C.2   326  TRP326      0.2620
    152  O         37.7990   -8.2980   26.6670 O.2   326  TRP326     -0.2715
    153  CB        36.3920   -7.5740   29.7460 C.3   326  TRP326      0.0590
    154  CG        35.4440   -8.7120   29.4640 C.ar  326  TRP326      0.0006
    155  CD1       34.1110   -8.6200   29.1680 C.ar  326  TRP326      0.0946
    156  CD2       35.7480  -10.1140   29.5040 C.ar  326  TRP326      0.0152
    157  NE1       33.5670   -9.8780   29.0290 N.ar  326  TRP326     -0.2442
    158  CE2       34.5500  -10.8120   29.2290 C.ar  326  TRP326      0.0810
    159  CE3       36.9180  -10.8470   29.7460 C.ar  326  TRP326      0.0012
    160  CZ2       34.4890  -12.2140   29.1890 C.ar  326  TRP326      0.0191
    161  CZ3       36.8590  -12.2410   29.7060 C.ar  326  TRP326      0.0001
    162  CH2       35.6500  -12.9070   29.4290 C.ar  326  TRP326      0.0015
    163  N         38.9690   -8.4040   28.5900 N.am  327  GLY327     -0.1940
    164  CA        39.7810   -9.5250   28.1640 C.3   327  GLY327      0.2014
    165  C         40.7650   -9.8920   29.2520 C.2   327  GLY327      0.2640
    166  O         40.8490   -9.2150   30.2750 O.2   327  GLY327     -0.2714
    167  N         41.4870  -10.9860   29.0560 N.am  328  THR328     -0.1936
    168  CA        42.4840  -11.4010   30.0290 C.3   328  THR328      0.2028
    169  C         43.8450  -10.9270   29.5360 C.2   328  THR328      0.2643
    170  O         44.3170  -11.3660   28.4910 O.2   328  THR328     -0.2714
    171  CB        42.4810  -12.9320   30.2100 C.3   328  THR328      0.1808
    172  OG1       41.2620  -13.3280   30.8520 O.3   328  THR328     -0.2208
    173  CG2       43.6660  -13.3790   31.0550 C.3   328  THR328      0.0379
    174  N         44.4370   -9.9760   30.2570 N.am  329  GLY329     -0.1939
    175  CA        45.5340   -9.1960   29.7070 C.3   329  GLY329      0.2014
    176  C         45.1820   -8.5630   28.3720 C.2   329  GLY329      0.2639
    177  O         44.0280   -8.2160   28.1320 O.2   329  GLY329     -0.2714
    178  N         46.1830   -8.3840   27.5170 N.am  330  CYS330     -0.1967
    179  CA        45.9700   -7.8090   26.1930 C.3   330  CYS330      0.1712
    180  C         46.9030   -8.4590   25.1860 C.2   330  CYS330      0.2296
    181  O         48.1010   -8.6010   25.4330 O.2   330  CYS330     -0.2864
    182  CB        46.2210   -6.2980   26.1910 C.3   330  CYS330      0.0983
    183  SG        45.1710   -5.3380   27.3220 S.3   330  CYS330     -0.0798
    184  N         43.5080  -15.5400   24.0890 N.3   335  LYS335     -0.1231
    185  CA        42.7850  -14.6750   25.0150 C.3   335  LYS335      0.1678
    186  C         42.4180  -13.4340   24.2060 C.2   335  LYS335      0.2434
    187  O         42.9330  -12.3370   24.4420 O.2   335  LYS335     -0.2733
    188  CB        43.6530  -14.3050   26.2230 C.3   335  LYS335      0.0284
    189  CG        44.0000  -15.4930   27.1150 C.3   335  LYS335      0.0035
    190  CD        42.7530  -16.0880   27.7560 C.3   335  LYS335      0.0206
    191  CE        43.0700  -17.3690   28.5190 C.3   335  LYS335      0.1093
    192  NZ        43.4620  -18.4610   27.5860 N.3   335  LYS335     -0.1314
    193  N         41.5080  -13.5970   23.2310 N.am  336  PRO336     -0.2718
    194  CA        41.0830  -12.4830   22.3820 C.3   336  PRO336      0.1535
    195  C         40.3070  -11.4260   23.1450 C.2   336  PRO336      0.2599
    196  O         39.9720  -11.6000   24.3150 O.2   336  PRO336     -0.2715
    197  CB        40.2220  -13.1720   21.3280 C.3   336  PRO336      0.0310
    198  CG        39.5950  -14.2920   22.0870 C.3   336  PRO336      0.0237
    199  CD        40.7270  -14.8160   22.9420 C.3   336  PRO336      0.0939
    200  N         40.0180  -10.3210   22.4730 N.am  337  GLY337     -0.1941
    201  CA        39.1850   -9.3100   23.0880 C.3   337  GLY337      0.2014
    202  C         37.7300   -9.7240   23.1300 C.2   337  GLY337      0.2639
    203  O         37.2480  -10.4280   22.2370 O.2   337  GLY337     -0.2714
    204  N         37.0380   -9.3250   24.1910 N.am  338  VAL338     -0.1963
    205  CA        35.6250   -9.6340   24.3380 C.3   338  VAL338      0.1727
    206  C         34.8600   -8.3310   24.1570 C.2   338  VAL338      0.2616
    207  O         35.2350   -7.2960   24.7120 O.2   338  VAL338     -0.2715
    208  CB        35.3210  -10.2790   25.6980 C.3   338  VAL338      0.0290
    209  CG1       33.8570  -10.6910   25.7710 C.3   338  VAL338      0.0023
    210  CG2       36.2200  -11.5020   25.8970 C.3   338  VAL338      0.0023
    211  N         33.7960   -8.3940   23.3630 N.am  339  TYR339     -0.1974
    212  CA        32.9960   -7.2210   23.0290 C.3   339  TYR339      0.1639
    213  C         31.5130   -7.4010   23.2940 C.2   339  TYR339      0.2290
    214  O         30.9880   -8.5100   23.2200 O.2   339  TYR339     -0.2864
    215  CB        33.1590   -6.9190   21.5350 C.3   339  TYR339      0.0560
    216  CG        34.5780   -6.6520   21.0960 C.ar  339  TYR339     -0.0198
    217  CD1       35.5040   -7.6920   20.9520 C.ar  339  TYR339     -0.0009
    218  CD2       35.0020   -5.3540   20.8340 C.ar  339  TYR339     -0.0009
    219  CE1       36.8220   -7.4340   20.5600 C.ar  339  TYR339      0.0417
    220  CE2       36.3040   -5.0850   20.4410 C.ar  339  TYR339      0.0417
    221  CZ        37.2110   -6.1240   20.3060 C.ar  339  TYR339      0.1957
    222  OH        38.4960   -5.8400   19.9240 O.3   339  TYR339     -0.2866
@<TRIPOS>BOND
     1    98    99    1
     2   222   221    1
     3   221   220   ar
     4   221   219   ar
     5    99   100    1
     6    99   102    1
     7   220   218   ar
     8   219   217   ar
     9   101   100    2
    10   218   216   ar
    11   217   216   ar
    12   100   106   am
    13   216   215    1
    14   197   198    1
    15   197   194    1
    16   102   103    1
    17   215   212    1
    18   106   107    1
    19   198   199    1
    20   142   140    1
    21   104   103   ar
    22   203   202    2
    23   107   110    1
    24   107   108    1
    25   194   195    1
    26   194   193    1
    27   103   105   ar
    28   200   201    1
    29   200   195   am
    30    93    92    2
    31   136   137    1
    32   199   193    1
    33   212   213    1
    34   212   211    1
    35    92    91    1
    36   201   202    1
    37   202   204   am
    38   195   196    2
    39   214   213    2
    40   193   186   am
    41   211   206   am
    42   140   137    1
    43   140   141    1
    44   137   138    1
    45   108   109    2
    46   108   111   am
    47   184   185    1
    48    90    91    1
    49   206   205    1
    50   206   207    2
    51    91    94    1
    52   204   205    1
    53   186   187    2
    54   186   185    1
    55   205   208    1
    56   111   112    1
    57   185   188    1
    58   138   143   am
    59   138   139    2
    60   180   181    2
    61   180   179    1
    62    94    95    1
    63   143   144    1
    64   208   209    1
    65   208   210    1
    66   115   112    1
    67   115   116    1
    68   112   113    1
    69   129   128    2
    70    12    11    2
    71   132   133    2
    72   132   131    1
    73   182   179    1
    74   182   183    1
    75   179   178    1
    76   130   131    1
    77   188   189    1
    78    11    10    1
    79   114   113    2
    80   128   127    1
    81   131   134    1
    82   152   151    2
    83    95    96    1
    84   113   117   am
    85   147   144    1
    86   147   148    1
    87   144   145    1
    88   116   183    1
    89   189   190    1
    90    64    63    2
    91    69    70    1
    92   120   119    2
    93   178   176   am
    94   192   191    1
    95   149   145   am
    96   149   150    1
    97    10    13    1
    98    10     9    1
    99   190   191    1
   100   127   126    1
   101   151   150    1
   102   151   163   am
   103   145   146    2
   104   117   118    1
   105    96    97    1
   106   134   135    1
   107   177   176    2
   108   164   163    1
   109   164   165    1
   110    13    14    1
   111   119   126   am
   112   119   118    1
   113    63    62    1
   114   176   175    1
   115   170   169    2
   116   150   153    1
   117     9     3   am
   118    70    73    1
   119    70    71    1
   120   118   121    1
   121   157   155   ar
   122   157   158   ar
   123   167   165   am
   124   167   168    1
   125   155   154   ar
   126    73    74    1
   127   160   158   ar
   128   160   162   ar
   129   158   156   ar
   130   165   166    2
   131    61    62    1
   132    83    84    2
   133    83    82    1
   134    65    62    1
   135    65    66    1
   136   162   161   ar
   137   154   156   ar
   138   154   153    1
   139     3     4    2
   140     3     2    1
   141   156   159   ar
   142   169   168    1
   143   169   174   am
   144    71    72    2
   145    68    66   ar
   146     1     2    1
   147   161   159   ar
   148   175   174    1
   149    81    82    1
   150    66    67   ar
   151   168   171    1
   152   124   123    2
   153    23    21   ar
   154    23    24   ar
   155   171   172    1
   156   171   173    1
   157   121   122    1
   158    82    85    1
   159     2     5    1
   160    74    75   ar
   161    74    76   ar
   162    75    77   ar
   163   123   125   am
   164   123   122    1
   165    85    86    1
   166    21    20   ar
   167    56    55    2
   168    24    22   ar
   169    89    87   am
   170     5     6    1
   171    76    78   ar
   172    77    79   ar
   173    55    54    1
   174    86    87    1
   175    20    22   ar
   176    20    19    1
   177    15    16    1
   178    87    88    2
   179    57    54    1
   180    57    58    1
   181     6     8    1
   182     6     7    1
   183    78    79   ar
   184    79    80    1
   185    19    16    1
   186    54    53    1
   187    31    33   ar
   188    31    30   ar
   189    17    16    1
   190    17    18    2
   191    33    35   ar
   192    58    59    2
   193    58    60   am
   194    29    30    1
   195    29    26    1
   196    30    32   ar
   197    25    26    1
   198    35    36    1
   199    35    34   ar
   200    26    27    1
   201    32    34   ar
   202    47    46    2
   203    27    28    2
   204    43    42    1
   205    43    37    1
   206    46    45    1
   207    42    41    1
   208    41    38    1
   209    37    38    1
   210    45    48    1
   211    45    44    1
   212    48    49    1
   213    38    39    1
   214    39    40    2
   215    51    50   ar
   216    52    50   ar
   217    50    49    1
