@<TRIPOS>MOLECULE
tmp/1z8lC02.pdb
 109 107 0 0 0
SMALL
GASTEIGER

@<TRIPOS>ATOM
      1  N        -24.9950  -24.8270   70.9350 N.3   182  PRO182     -0.2102
      2  CA       -26.3530  -25.2730   71.2430 C.3   182  PRO182      0.1504
      3  C        -26.8970  -26.2560   70.2090 C.2   182  PRO182      0.2576
      4  O        -27.1330  -25.8850   69.0610 O.2   182  PRO182     -0.2718
      5  CB       -27.1430  -23.9660   71.2650 C.3   182  PRO182      0.0282
      6  CG       -26.1250  -22.9670   71.7270 C.3   182  PRO182      0.0208
      7  CD       -24.9190  -23.3550   70.9120 C.3   182  PRO182      0.0893
      8  N        -27.0700  -27.5110   70.6150 N.am  183  GLY183     -0.1943
      9  CA       -27.6250  -28.5060   69.7120 C.3   183  GLY183      0.2014
     10  C        -26.6730  -29.4740   69.0420 C.2   183  GLY183      0.2638
     11  O        -26.8270  -29.7750   67.8570 O.2   183  GLY183     -0.2714
     12  N        -25.6940  -29.9740   69.7860 N.am  184  VAL184     -0.1977
     13  CA       -24.7450  -30.9220   69.2190 C.3   184  VAL184      0.1596
     14  C        -24.2510  -31.9280   70.2560 C.2   184  VAL184      0.2287
     15  O        -24.3460  -31.6810   71.4590 O.2   184  VAL184     -0.2864
     16  CB       -23.5400  -30.2040   68.6470 C.3   184  VAL184      0.0276
     17  CG1      -22.7720  -31.1610   67.7640 C.3   184  VAL184      0.0022
     18  CG2      -23.9810  -28.9620   67.8850 C.3   184  VAL184      0.0022
     19  N        -18.9580  -33.3090   67.9750 N.3   191  TRP191     -0.1241
     20  CA       -18.5690  -32.1580   67.1320 C.3   191  TRP191      0.1605
     21  C        -18.3810  -31.0210   68.1450 C.2   191  TRP191      0.2264
     22  O        -17.7110  -30.0130   67.8850 O.2   191  TRP191     -0.2867
     23  CB       -19.7140  -31.8090   66.1910 C.3   191  TRP191      0.0550
     24  CG       -19.6110  -30.5810   65.3810 C.ar  191  TRP191      0.0003
     25  CD1      -19.3540  -30.5190   64.0530 C.ar  191  TRP191      0.0946
     26  CD2      -19.9510  -29.2480   65.7890 C.ar  191  TRP191      0.0152
     27  NE1      -19.5320  -29.2380   63.5960 N.ar  191  TRP191     -0.2442
     28  CE2      -19.8970  -28.4360   64.6440 C.ar  191  TRP191      0.0810
     29  CE3      -20.3010  -28.6650   67.0080 C.ar  191  TRP191      0.0012
     30  CZ2      -20.1820  -27.0630   64.6810 C.ar  191  TRP191      0.0191
     31  CZ3      -20.5850  -27.2990   67.0410 C.ar  191  TRP191      0.0001
     32  CH2      -20.5230  -26.5180   65.8850 C.ar  191  TRP191      0.0015
     33  N        -13.1290  -23.7800   60.8330 N.3   402  GLU402     -0.1231
     34  CA       -13.7330  -23.4280   62.1100 C.3   402  GLU402      0.1699
     35  C        -15.2210  -23.5750   61.8790 C.2   402  GLU402      0.2593
     36  O        -16.0020  -23.6690   62.8230 O.2   402  GLU402     -0.2718
     37  CB       -13.4390  -21.9800   62.4750 C.3   402  GLU402      0.0402
     38  CG       -12.0930  -21.7350   63.0870 C.3   402  GLU402      0.1161
     39  CD       -11.8490  -20.2590   63.3090 C.2   402  GLU402      0.3649
     40  OE1      -12.6740  -19.6030   63.9810 O.co2 402  GLU402     -0.2457
     41  OE2      -10.8300  -19.7500   62.8050 O.co2 402  GLU402     -0.2457
     42  N        -15.5980  -23.5890   60.5990 N.am  403  GLY403     -0.1942
     43  CA       -16.9930  -23.7200   60.2240 C.3   403  GLY403      0.2014
     44  C        -17.2020  -24.0970   58.7660 C.2   403  GLY403      0.2638
     45  O        -16.2930  -24.5920   58.0940 O.2   403  GLY403     -0.2714
     46  N        -18.4240  -23.8780   58.2940 N.am  404  ASN404     -0.1972
     47  CA       -18.8110  -24.1620   56.9260 C.3   404  ASN404      0.1688
     48  C        -19.4150  -22.8690   56.4190 C.2   404  ASN404      0.2292
     49  O        -19.6480  -22.6960   55.2260 O.2   404  ASN404     -0.2864
     50  CB       -19.8970  -25.2310   56.8830 C.3   404  ASN404      0.1181
     51  CG       -19.5080  -26.4820   57.6170 C.2   404  ASN404      0.2629
     52  OD1      -18.6440  -27.2320   57.1680 O.2   404  ASN404     -0.2716
     53  ND2      -20.1350  -26.7030   58.7670 N.am  404  ASN404     -0.0877
     54  N        -22.3800  -24.3130   49.8630 N.3   431  GLU431     -0.1245
     55  CA       -23.5680  -25.0450   49.4160 C.3   431  GLU431      0.1567
     56  C        -24.6610  -24.0690   48.9920 C.2   431  GLU431      0.2260
     57  O        -25.0600  -23.1950   49.7610 O.2   431  GLU431     -0.2867
     58  CB       -24.0780  -25.9510   50.5460 C.3   431  GLU431      0.0388
     59  CG       -24.3350  -25.2280   51.8700 C.3   431  GLU431      0.1160
     60  CD       -24.6180  -26.1780   53.0250 C.2   431  GLU431      0.3649
     61  OE1      -25.5950  -26.9530   52.9420 O.co2 431  GLU431     -0.2457
     62  OE2      -23.8610  -26.1450   54.0200 O.co2 431  GLU431     -0.2457
     63  N        -17.4870  -20.1550   60.9180 N.3   484  LYS484     -0.1245
     64  CA       -18.9030  -20.3380   61.2140 C.3   484  LYS484      0.1561
     65  C        -19.7040  -19.0460   61.0160 C.2   484  LYS484      0.2260
     66  O        -19.1350  -17.9890   60.7450 O.2   484  LYS484     -0.2867
     67  CB       -19.0260  -20.7720   62.6670 C.3   484  LYS484      0.0271
     68  CG       -18.3590  -19.7680   63.5970 C.3   484  LYS484      0.0035
     69  CD       -18.1700  -20.3050   64.9930 C.3   484  LYS484      0.0206
     70  CE       -17.3680  -19.3340   65.8400 C.3   484  LYS484      0.1093
     71  NZ       -17.0440  -19.8960   67.1790 N.3   484  LYS484     -0.1314
     72  N        -25.0430  -17.1120   64.5270 N.3   488  THR488     -0.1203
     73  CA       -25.5990  -18.3420   65.0880 C.3   488  THR488      0.1994
     74  C        -24.7580  -18.7160   66.3060 C.2   488  THR488      0.2617
     75  O        -25.2860  -19.0990   67.3540 O.2   488  THR488     -0.2717
     76  CB       -25.5490  -19.4980   64.0670 C.3   488  THR488      0.1784
     77  OG1      -26.4430  -19.2170   62.9830 O.3   488  THR488     -0.2211
     78  CG2      -25.9400  -20.8150   64.7230 C.3   488  THR488      0.0376
     79  N        -23.4410  -18.5990   66.1460 N.am  489  ASN489     -0.1974
     80  CA       -22.4810  -18.8910   67.2060 C.3   489  ASN489      0.1688
     81  C        -21.7500  -17.5870   67.5080 C.2   489  ASN489      0.2292
     82  O        -21.0760  -17.0260   66.6430 O.2   489  ASN489     -0.2864
     83  CB       -21.4880  -19.9610   66.7420 C.3   489  ASN489      0.1181
     84  CG       -22.1720  -21.2590   66.3320 C.2   489  ASN489      0.2629
     85  OD1      -21.5170  -22.2090   65.8980 O.2   489  ASN489     -0.2716
     86  ND2      -23.4940  -21.3040   66.4680 N.am  489  ASN489     -0.0877
     87  N        -16.9200  -34.3480   60.2610 N.3   510  PHE510     -0.1227
     88  CA       -17.8170  -33.3040   60.7650 C.3   510  PHE510      0.1736
     89  C        -17.6230  -31.9340   60.1530 C.2   510  PHE510      0.2595
     90  O        -18.5790  -31.1640   60.0530 O.2   510  PHE510     -0.2718
     91  CB       -17.6940  -33.1450   62.2820 C.3   510  PHE510      0.0547
     92  CG       -18.2920  -34.2730   63.0690 C.ar  510  PHE510     -0.0202
     93  CD1      -17.6680  -35.5130   63.1230 C.ar  510  PHE510     -0.0042
     94  CD2      -19.4720  -34.0860   63.7760 C.ar  510  PHE510     -0.0042
     95  CE1      -18.2090  -36.5430   63.8710 C.ar  510  PHE510     -0.0003
     96  CE2      -20.0190  -35.1100   64.5260 C.ar  510  PHE510     -0.0003
     97  CZ       -19.3900  -36.3390   64.5750 C.ar  510  PHE510     -0.0000
     98  N        -16.3940  -31.6180   59.7600 N.am  511  TYR511     -0.1976
     99  CA       -16.1210  -30.3080   59.1850 C.3   511  TYR511      0.1639
    100  C        -16.0670  -30.2080   57.6600 C.2   511  TYR511      0.2290
    101  O        -16.9060  -29.5440   57.0450 O.2   511  TYR511     -0.2864
    102  CB       -14.8330  -29.7390   59.7730 C.3   511  TYR511      0.0560
    103  CG       -14.9810  -29.1930   61.1740 C.ar  511  TYR511     -0.0198
    104  CD1      -14.9560  -30.0380   62.2850 C.ar  511  TYR511     -0.0009
    105  CD2      -15.1360  -27.8240   61.3910 C.ar  511  TYR511     -0.0009
    106  CE1      -15.0760  -29.5300   63.5830 C.ar  511  TYR511      0.0417
    107  CE2      -15.2600  -27.3040   62.6820 C.ar  511  TYR511      0.0417
    108  CZ       -15.2270  -28.1590   63.7740 C.ar  511  TYR511      0.1957
    109  OH       -15.3400  -27.6410   65.0470 O.3   511  TYR511     -0.2866
@<TRIPOS>BOND
     1    56    55    1
     2    56    57    2
     3    55    54    1
     4    55    58    1
     5    58    59    1
     6    59    60    1
     7    61    60   ar
     8    60    62   ar
     9    49    48    2
    10    48    47    1
    11    50    47    1
    12    50    51    1
    13    47    46    1
    14   101   100    2
    15    52    51    2
    16    51    53   am
    17   100    99    1
    18    45    44    2
    19    46    44   am
    20    44    43    1
    21    99    98    1
    22    99   102    1
    23    98    89   am
    24   102   103    1
    25    90    89    2
    26    89    88    1
    27    43    42    1
    28    87    88    1
    29    42    35   am
    30    66    65    2
    31    88    91    1
    32    33    34    1
    33    63    64    1
    34    65    64    1
    35   103   105   ar
    36   103   104   ar
    37    64    67    1
    38   105   107   ar
    39    35    34    1
    40    35    36    2
    41    34    37    1
    42    91    92    1
    43   104   106   ar
    44    37    38    1
    45    67    68    1
    46   107   108   ar
    47    41    39   ar
    48    77    76    1
    49    92    93   ar
    50    92    94   ar
    51    38    39    1
    52    93    95   ar
    53    39    40   ar
    54   106   108   ar
    55    27    25   ar
    56    27    28   ar
    57    68    69    1
    58   108   109    1
    59    94    96   ar
    60    95    97   ar
    61    25    24   ar
    62    76    78    1
    63    76    73    1
    64    96    97   ar
    65    72    73    1
    66    28    30   ar
    67    28    26   ar
    68    30    32   ar
    69    69    70    1
    70    73    74    1
    71    24    26   ar
    72    24    23    1
    73    26    29   ar
    74    70    71    1
    75    32    31   ar
    76    85    84    2
    77    79    74   am
    78    79    80    1
    79    23    20    1
    80    74    75    2
    81    84    86   am
    82    84    83    1
    83    82    81    2
    84    83    80    1
    85    29    31   ar
    86    20    19    1
    87    20    21    1
    88    80    81    1
    89    17    16    1
    90    11    10    2
    91    22    21    2
    92    18    16    1
    93    16    13    1
    94    10     9    1
    95    10    12   am
    96     4     3    2
    97    13    12    1
    98    13    14    1
    99     9     8    1
   100     3     8   am
   101     3     2    1
   102    14    15    2
   103     7     1    1
   104     7     6    1
   105     1     2    1
   106     2     5    1
   107     5     6    1
