@<TRIPOS>MOLECULE
tmp/1z8nA00.pdb
 93 90 0 0 0
SMALL
GASTEIGER

@<TRIPOS>ATOM
      1  N         57.8070   78.3910   40.9240 N.3   135  LYS135     -0.1245
      2  CA        57.1200   79.3210   41.8110 C.3   135  LYS135      0.1561
      3  C         56.4340   80.3910   40.9770 C.2   135  LYS135      0.2260
      4  O         55.3040   80.7970   41.2580 O.2   135  LYS135     -0.2867
      5  CB        58.0980   79.9850   42.7830 C.3   135  LYS135      0.0271
      6  CG        57.4140   80.9260   43.7830 C.3   135  LYS135      0.0035
      7  CD        58.3570   81.4390   44.8640 C.3   135  LYS135      0.0206
      8  CE        57.5900   82.2710   45.8790 C.3   135  LYS135      0.1093
      9  NZ        58.4370   82.7140   47.0230 N.3   135  LYS135     -0.1314
     10  N         59.8230   84.5910   51.0600 N.3   160  GLY160     -0.1210
     11  CA        58.7370   83.7130   51.4610 C.3   160  GLY160      0.1956
     12  C         59.1540   82.2620   51.4700 C.2   160  GLY160      0.2611
     13  O         60.1080   81.8780   52.1490 O.2   160  GLY160     -0.2717
     14  N         58.4240   81.4430   50.7250 N.am  161  ARG161     -0.1979
     15  CA        58.7460   80.0310   50.6130 C.3   161  ARG161      0.1597
     16  C         59.6030   79.9250   49.3400 C.2   161  ARG161      0.2287
     17  O         59.0830   79.9370   48.2240 O.2   161  ARG161     -0.2864
     18  CB        57.4610   79.2240   50.4790 C.3   161  ARG161      0.0334
     19  CG        57.6750   77.7470   50.5320 C.3   161  ARG161      0.0492
     20  CD        56.3730   77.0100   50.4320 C.3   161  ARG161      0.2205
     21  NE        56.5860   75.5690   50.4600 N.pl3 161  ARG161     -0.0865
     22  CZ        55.6190   74.6650   50.5900 C.cat 161  ARG161      0.5346
     23  NH1       54.3550   75.0500   50.7030 N.pl3 161  ARG161      0.1354
     24  NH2       55.9230   73.3710   50.6300 N.pl3 161  ARG161      0.1354
     25  N         50.4050   92.0400   44.9120 N.3   190  GLY190     -0.1210
     26  CA        49.7480   90.9000   45.5230 C.3   190  GLY190      0.1956
     27  C         50.6340   90.1040   46.4670 C.2   190  GLY190      0.2611
     28  O         50.2450   89.8240   47.6070 O.2   190  GLY190     -0.2717
     29  N         51.8220   89.7430   45.9830 N.am  191  TYR191     -0.1976
     30  CA        52.8060   88.9730   46.7410 C.3   191  TYR191      0.1639
     31  C         53.2270   89.6760   48.0330 C.2   191  TYR191      0.2290
     32  O         53.2310   89.0630   49.0990 O.2   191  TYR191     -0.2864
     33  CB        54.0460   88.7190   45.8770 C.3   191  TYR191      0.0560
     34  CG        55.0820   87.8070   46.5080 C.ar  191  TYR191     -0.0198
     35  CD1       54.8910   86.4270   46.5500 C.ar  191  TYR191     -0.0009
     36  CD2       56.2580   88.3240   47.0480 C.ar  191  TYR191     -0.0009
     37  CE1       55.8410   85.5890   47.1070 C.ar  191  TYR191      0.0417
     38  CE2       57.2160   87.4940   47.6090 C.ar  191  TYR191      0.0417
     39  CZ        57.0030   86.1280   47.6370 C.ar  191  TYR191      0.1957
     40  OH        57.9500   85.3020   48.2020 O.3   191  TYR191     -0.2866
     41  N         51.0310   89.5290   50.8800 N.3   194  ARG194     -0.1231
     42  CA        50.8080   88.1860   51.3950 C.3   194  ARG194      0.1694
     43  C         52.0050   87.7310   52.2240 C.2   194  ARG194      0.2592
     44  O         52.0060   86.6290   52.7750 O.2   194  ARG194     -0.2718
     45  CB        50.5540   87.2030   50.2470 C.3   194  ARG194      0.0321
     46  CG        49.1820   87.3480   49.6060 C.3   194  ARG194      0.0489
     47  CD        48.8820   86.2160   48.6430 C.3   194  ARG194      0.2205
     48  NE        49.2040   84.9120   49.2230 N.pl3 194  ARG194     -0.0865
     49  CZ        48.7940   83.7420   48.7350 C.cat 194  ARG194      0.5346
     50  NH1       48.0310   83.6970   47.6460 N.pl3 194  ARG194      0.1354
     51  NH2       49.1540   82.6110   49.3360 N.pl3 194  ARG194      0.1354
     52  N         53.0140   88.5950   52.3140 N.am  195  MET195     -0.1966
     53  CA        54.2240   88.2970   53.0640 C.3   195  MET195      0.1721
     54  C         53.9400   88.3380   54.5560 C.2   195  MET195      0.2458
     55  O         53.6200   89.3910   55.0980 O.2   195  MET195     -0.2730
     56  CB        55.3040   89.3180   52.7330 C.3   195  MET195      0.0427
     57  CG        56.6810   88.9330   53.2290 C.3   195  MET195      0.0599
     58  SD        57.4080   87.6040   52.2570 S.3   195  MET195     -0.1393
     59  CE        58.0160   88.5570   50.8560 C.3   195  MET195      0.0692
     60  N         54.0630   87.1920   55.2460 N.am  196  PRO196     -0.2727
     61  CA        53.8010   87.1510   56.6890 C.3   196  PRO196      0.1402
     62  C         54.5690   88.2020   57.4840 C.2   196  PRO196      0.2269
     63  O         55.7240   88.5100   57.1820 O.2   196  PRO196     -0.2865
     64  CB        54.1960   85.7280   57.0680 C.3   196  PRO196      0.0296
     65  CG        53.8430   84.9580   55.8250 C.3   196  PRO196      0.0237
     66  CD        54.3970   85.8500   54.7390 C.3   196  PRO196      0.0939
     67  N         55.6170   79.4500   57.1220 N.3   310  ILE310     -0.1231
     68  CA        55.7030   80.7170   56.4070 C.3   310  ILE310      0.1692
     69  C         54.6570   80.7670   55.2910 C.2   310  ILE310      0.2592
     70  O         54.3260   81.8310   54.7750 O.2   310  ILE310     -0.2718
     71  CB        57.1330   80.9130   55.8100 C.3   310  ILE310      0.0266
     72  CG1       57.3430   82.3690   55.4050 C.3   310  ILE310      0.0019
     73  CG2       57.3250   80.0290   54.5820 C.3   310  ILE310      0.0020
     74  CD1       57.1070   83.3480   56.5160 C.3   310  ILE310      0.0001
     75  N         54.1290   79.6030   54.9380 N.am  311  ASP311     -0.1960
     76  CA        53.1330   79.4900   53.8810 C.3   311  ASP311      0.1840
     77  C         51.7630   79.1670   54.4760 C.2   311  ASP311      0.2623
     78  O         51.5330   78.0630   54.9690 O.2   311  ASP311     -0.2715
     79  CB        53.5550   78.3860   52.8980 C.3   311  ASP311      0.1450
     80  CG        52.5970   78.2350   51.7360 C.2   311  ASP311      0.3671
     81  OD1       51.3730   78.3340   51.9550 O.co2 311  ASP311     -0.2456
     82  OD2       53.0660   78.0020   50.6000 O.co2 311  ASP311     -0.2456
     83  N         50.8530   80.1370   54.4170 N.am  312  SER312     -0.1936
     84  CA        49.5020   79.9750   54.9500 C.3   312  SER312      0.2055
     85  C         48.7970   78.7490   54.3740 C.2   312  SER312      0.2642
     86  O         48.1640   77.9830   55.1030 O.2   312  SER312     -0.2714
     87  CB        48.6640   81.2160   54.6440 C.3   312  SER312      0.2130
     88  OG        48.3930   81.3100   53.2540 O.3   312  SER312     -0.2179
     89  N         48.9060   78.5720   53.0610 N.am  313  ALA313     -0.1977
     90  CA        48.2710   77.4500   52.3830 C.3   313  ALA313      0.1597
     91  C         48.6350   76.1160   53.0270 C.2   313  ALA313      0.2287
     92  O         47.8260   75.1910   53.0750 O.2   313  ALA313     -0.2864
     93  CB        48.6610   77.4440   50.9130 C.3   313  ALA313      0.0319
@<TRIPOS>BOND
     1     1     2    1
     2     3     4    2
     3     3     2    1
     4     2     5    1
     5     5     6    1
     6     6     7    1
     7     7     8    1
     8    25    26    1
     9    26    27    1
    10    33    34    1
    11    33    30    1
    12     8     9    1
    13    29    27   am
    14    29    30    1
    15    27    28    2
    16    34    35   ar
    17    34    36   ar
    18    35    37   ar
    19    30    31    1
    20    36    38   ar
    21    37    39   ar
    22    38    39   ar
    23    39    40    1
    24    50    49    1
    25    31    32    2
    26    17    16    2
    27    47    48    1
    28    47    46    1
    29    49    48    2
    30    49    51    1
    31    16    15    1
    32    46    45    1
    33    45    42    1
    34    20    21    1
    35    20    19    1
    36    21    22    2
    37    18    19    1
    38    18    15    1
    39    22    24    1
    40    22    23    1
    41    82    80   ar
    42    15    14    1
    43    14    12   am
    44    59    58    1
    45    41    42    1
    46    93    90    1
    47    10    11    1
    48    42    43    1
    49    11    12    1
    50    12    13    2
    51    80    81   ar
    52    80    79    1
    53    43    52   am
    54    43    44    2
    55    58    57    1
    56    52    53    1
    57    90    91    1
    58    90    89    1
    59    56    53    1
    60    56    57    1
    61    79    76    1
    62    91    92    2
    63    89    85   am
    64    53    54    1
    65    88    87    1
    66    76    77    1
    67    76    75    1
    68    85    84    1
    69    85    86    2
    70    83    77   am
    71    83    84    1
    72    77    78    2
    73    54    55    2
    74    54    60   am
    75    73    71    1
    76    87    84    1
    77    66    60    1
    78    66    65    1
    79    70    69    2
    80    75    69   am
    81    60    61    1
    82    69    68    1
    83    72    71    1
    84    72    74    1
    85    71    68    1
    86    65    64    1
    87    68    67    1
    88    61    64    1
    89    61    62    1
    90    63    62    2
