@<TRIPOS>MOLECULE
tmp/1z8pA01.pdb
 153 144 0 0 0
SMALL
GASTEIGER

@<TRIPOS>ATOM
      1  N          5.5120    4.8930   14.9760 N.3    73  ALA73      -0.1231
      2  CA         6.8110    4.8680   15.6450 C.3    73  ALA73       0.1694
      3  C          6.7700    5.0680   17.1600 C.2    73  ALA73       0.2592
      4  O          7.7510    4.7830   17.8490 O.2    73  ALA73      -0.2718
      5  CB         7.7400    5.9040   15.0150 C.3    73  ALA73       0.0304
      6  N          5.6520    5.5540   17.6910 N.am   74  TYR74      -0.1976
      7  CA         5.5650    5.7720   19.1310 C.3    74  TYR74       0.1639
      8  C          4.6900    4.7310   19.8180 C.2    74  TYR74       0.2290
      9  O          4.0990    4.9840   20.8660 O.2    74  TYR74      -0.2864
     10  CB         5.0760    7.1940   19.4160 C.3    74  TYR74       0.0560
     11  CG         6.0460    8.2360   18.8980 C.ar   74  TYR74      -0.0198
     12  CD1        5.6160    9.2730   18.0730 C.ar   74  TYR74      -0.0009
     13  CD2        7.4090    8.1430   19.1850 C.ar   74  TYR74      -0.0009
     14  CE1        6.5230   10.1990   17.5330 C.ar   74  TYR74       0.0417
     15  CE2        8.3310    9.0520   18.6560 C.ar   74  TYR74       0.0417
     16  CZ         7.8760   10.0710   17.8340 C.ar   74  TYR74       0.1957
     17  OH         8.7890   10.9550   17.3010 O.3    74  TYR74      -0.2866
     18  N          4.3800    3.9660   23.6750 N.3    77  PHE77      -0.1241
     19  CA         4.9140    5.1260   24.3900 C.3    77  PHE77       0.1605
     20  C          3.9080    5.9040   25.2300 C.2    77  PHE77       0.2264
     21  O          2.8740    6.3340   24.7240 O.2    77  PHE77      -0.2867
     22  CB         5.5200    6.1250   23.4000 C.3    77  PHE77       0.0534
     23  CG         6.8860    5.7570   22.9050 C.ar   77  PHE77      -0.0203
     24  CD1        7.2290    4.4320   22.6630 C.ar   77  PHE77      -0.0042
     25  CD2        7.8170    6.7520   22.6300 C.ar   77  PHE77      -0.0042
     26  CE1        8.4850    4.1060   22.1520 C.ar   77  PHE77      -0.0003
     27  CE2        9.0670    6.4360   22.1200 C.ar   77  PHE77      -0.0003
     28  CZ         9.4040    5.1120   21.8800 C.ar   77  PHE77      -0.0000
     29  N         10.4130   12.4790   23.3660 N.3    85  PHE85      -0.1241
     30  CA        10.9380   11.9820   22.0970 C.3    85  PHE85       0.1605
     31  C         10.5830   12.8740   20.9180 C.2    85  PHE85       0.2264
     32  O         11.2550   12.8390   19.8820 O.2    85  PHE85      -0.2867
     33  CB        10.3560   10.5960   21.8060 C.3    85  PHE85       0.0534
     34  CG        11.2260    9.4580   22.2380 C.ar   85  PHE85      -0.0203
     35  CD1       11.9770    8.7540   21.3030 C.ar   85  PHE85      -0.0042
     36  CD2       11.2830    9.0710   23.5710 C.ar   85  PHE85      -0.0042
     37  CE1       12.7730    7.6760   21.6890 C.ar   85  PHE85      -0.0003
     38  CE2       12.0760    7.9940   23.9680 C.ar   85  PHE85      -0.0003
     39  CZ        12.8200    7.2960   23.0290 C.ar   85  PHE85      -0.0000
     40  N         11.4950   18.1800   18.9930 N.3    88  ASN88      -0.1240
     41  CA        12.7250   18.4970   18.2730 C.3    88  ASN88       0.1653
     42  C         12.4610   18.7480   16.7830 C.2    88  ASN88       0.2266
     43  O         11.3210   18.6450   16.3240 O.2    88  ASN88      -0.2867
     44  CB        13.7280   17.3560   18.4530 C.3    88  ASN88       0.1155
     45  CG        13.1050   15.9910   18.2230 C.2    88  ASN88       0.2627
     46  OD1       12.9220   15.2050   19.1590 O.2    88  ASN88      -0.2716
     47  ND2       12.7700   15.7050   16.9770 N.am   88  ASN88      -0.0877
     48  N         12.8320   17.1120   13.8730 N.3    90  GLY90      -0.1210
     49  CA        12.0700   16.1060   13.1560 C.3    90  GLY90       0.1956
     50  C         10.6190   15.9140   13.5580 C.2    90  GLY90       0.2612
     51  O          9.8720   15.2430   12.8400 O.2    90  GLY90      -0.2717
     52  N         10.2200   16.4850   14.6920 N.am   91  THR91      -0.1952
     53  CA         8.8460   16.3600   15.1830 C.3    91  THR91       0.1897
     54  C          8.1790   17.7220   15.3570 C.2    91  THR91       0.2313
     55  O          7.2370   17.8760   16.1430 O.2    91  THR91      -0.2863
     56  CB         8.8060   15.6140   16.5350 C.3    91  THR91       0.1794
     57  OG1        9.8920   16.0610   17.3590 O.3    91  THR91      -0.2208
     58  CG2        8.9230   14.1110   16.3250 C.3    91  THR91       0.0378
     59  N         17.6330    1.1870   22.6060 N.3   170  SER170     -0.1217
     60  CA        17.4480    1.6860   21.2480 C.3   170  SER170      0.1889
     61  C         17.0780    0.5340   20.3140 C.2   170  SER170      0.2288
     62  O         16.2050    0.6730   19.4570 O.2   170  SER170     -0.2866
     63  CB        18.7350    2.3620   20.7590 C.3   170  SER170      0.2089
     64  OG        18.5430    3.0080   19.5100 O.3   170  SER170     -0.2183
     65  N         13.5390   -0.3820   20.5150 N.3   173  ILE173     -0.1231
     66  CA        12.7100    0.6540   19.9170 C.3   173  ILE173      0.1692
     67  C         12.6420    0.5900   18.3920 C.2   173  ILE173      0.2591
     68  O         11.6420    0.9950   17.8010 O.2   173  ILE173     -0.2718
     69  CB        13.1950    2.0500   20.3820 C.3   173  ILE173      0.0266
     70  CG1       12.8970    2.2110   21.8780 C.3   173  ILE173      0.0019
     71  CG2       12.5140    3.1470   19.5880 C.3   173  ILE173      0.0020
     72  CD1       13.5590    3.4130   22.5230 C.3   173  ILE173      0.0001
     73  N         13.6860    0.0730   17.7460 N.am  174  LEU174     -0.1980
     74  CA        13.6730   -0.0080   16.2860 C.3   174  LEU174      0.1596
     75  C         12.6010   -0.9550   15.7600 C.2   174  LEU174      0.2287
     76  O         12.1600   -0.8290   14.6220 O.2   174  LEU174     -0.2864
     77  CB        15.0420   -0.4390   15.7540 C.3   174  LEU174      0.0297
     78  CG        16.1770    0.5450   16.0560 C.3   174  LEU174      0.0022
     79  CD1       17.4540    0.0760   15.3880 C.3   174  LEU174      0.0001
     80  CD2       15.8080    1.9340   15.5560 C.3   174  LEU174      0.0001
     81  N         18.0820   13.8630   23.0290 N.3   235  LEU235     -0.1231
     82  CA        17.6100   12.4880   22.9180 C.3   235  LEU235      0.1693
     83  C         17.6660   11.9510   21.4930 C.2   235  LEU235      0.2591
     84  O         18.2470   10.8940   21.2540 O.2   235  LEU235     -0.2718
     85  CB        16.1780   12.3770   23.4590 C.3   235  LEU235      0.0284
     86  CG        15.5800   10.9660   23.5770 C.3   235  LEU235      0.0019
     87  CD1       14.5210   10.9560   24.6700 C.3   235  LEU235      0.0001
     88  CD2       14.9830   10.5260   22.2440 C.3   235  LEU235      0.0001
     89  N         17.0650   12.6650   20.5410 N.am  236  VAL236     -0.1980
     90  CA        17.0790   12.1930   19.1580 C.3   236  VAL236      0.1595
     91  C         18.4770   12.2470   18.5550 C.2   236  VAL236      0.2287
     92  O         18.8360   11.3890   17.7500 O.2   236  VAL236     -0.2864
     93  CB        16.0840   12.9890   18.2610 C.3   236  VAL236      0.0276
     94  CG1       16.2550   12.5900   16.7980 C.3   236  VAL236      0.0022
     95  CG2       14.6550   12.6850   18.6880 C.3   236  VAL236      0.0022
     96  N         20.1170    8.9460   19.6440 N.3   239  LEU239     -0.1231
     97  CA        19.6450    7.7620   18.9250 C.3   239  LEU239      0.1693
     98  C         19.8480    7.8300   17.4100 C.2   239  LEU239      0.2591
     99  O         20.4580    6.9340   16.8210 O.2   239  LEU239     -0.2718
    100  CB        18.1690    7.5110   19.2430 C.3   239  LEU239      0.0284
    101  CG        17.8600    7.3010   20.7300 C.3   239  LEU239      0.0019
    102  CD1       16.4420    6.7710   20.8720 C.3   239  LEU239      0.0001
    103  CD2       18.8450    6.3150   21.3440 C.3   239  LEU239      0.0001
    104  N         19.3470    8.8900   16.7820 N.am  240  ALA240     -0.1980
    105  CA        19.4900    9.0610   15.3400 C.3   240  ALA240      0.1597
    106  C         20.9590    9.2320   14.9840 C.2   240  ALA240      0.2287
    107  O         21.3780    8.9250   13.8700 O.2   240  ALA240     -0.2864
    108  CB        18.7070   10.2840   14.8720 C.3   240  ALA240      0.0319
    109  N         22.3200    5.0260   15.1290 N.3   243  GLU243     -0.1231
    110  CA        21.5850    3.9120   14.5350 C.3   243  GLU243      0.1699
    111  C         21.5680    3.8780   13.0120 C.2   243  GLU243      0.2592
    112  O         21.7690    2.8200   12.4110 O.2   243  GLU243     -0.2718
    113  CB        20.1560    3.8730   15.0860 C.3   243  GLU243      0.0402
    114  CG        20.0980    3.4980   16.5680 C.3   243  GLU243      0.1161
    115  CD        20.3170    2.0110   16.8330 C.2   243  GLU243      0.3649
    116  OE1       20.8980    1.3100   15.9780 O.co2 243  GLU243     -0.2457
    117  OE2       19.9140    1.5400   17.9150 O.co2 243  GLU243     -0.2457
    118  N         21.3390    5.0180   12.3740 N.am  244  SER244     -0.1952
    119  CA        21.3140    5.0300   10.9190 C.3   244  SER244      0.1924
    120  C         22.7040    4.7540   10.3570 C.2   244  SER244      0.2314
    121  O         22.8390    4.1500    9.2980 O.2   244  SER244     -0.2863
    122  CB        20.7820    6.3680   10.4030 C.3   244  SER244      0.2116
    123  OG        21.5070    7.4420   10.9660 O.3   244  SER244     -0.2180
    124  N         16.0990    4.5180    6.6000 N.3   287  PRO287     -0.2116
    125  CA        14.7820    5.0380    6.9870 C.3   287  PRO287      0.1372
    126  C         13.8180    4.6590    5.8670 C.2   287  PRO287      0.2244
    127  O         13.3880    5.5160    5.0960 O.2   287  PRO287     -0.2868
    128  CB        15.0000    6.5550    7.0510 C.3   287  PRO287      0.0268
    129  CG        16.4940    6.7260    7.0750 C.3   287  PRO287      0.0207
    130  CD        16.9850    5.6210    6.1960 C.3   287  PRO287      0.0892
    131  N          8.9770    7.0190    6.3760 N.3   290  THR290     -0.1218
    132  CA         8.9620    8.1360    7.3010 C.3   290  THR290      0.1862
    133  C          7.4900    8.5290    7.3990 C.2   290  THR290      0.2287
    134  O          6.7600    8.4880    6.4100 O.2   290  THR290     -0.2866
    135  CB         9.8530    9.3130    6.8170 C.3   290  THR290      0.1770
    136  OG1        9.5310    9.6550    5.4670 O.3   290  THR290     -0.2211
    137  CG2       11.3240    8.9150    6.8930 C.3   290  THR290      0.0375
    138  N         10.8870    1.3140   10.3220 N.3   390  LEU390     -0.1231
    139  CA        11.3700    2.5680   10.9050 C.3   390  LEU390      0.1693
    140  C         12.8400    2.7480   10.5480 C.2   390  LEU390      0.2591
    141  O         13.2630    3.8170   10.1110 O.2   390  LEU390     -0.2718
    142  CB        11.2100    2.5410   12.4260 C.3   390  LEU390      0.0284
    143  CG        11.8190    3.6870   13.2450 C.3   390  LEU390      0.0019
    144  CD1       11.2600    5.0410   12.8070 C.3   390  LEU390      0.0001
    145  CD2       11.5140    3.4360   14.7170 C.3   390  LEU390      0.0001
    146  N         13.6230    1.6960   10.7500 N.am  391  LEU391     -0.1980
    147  CA        15.0430    1.7440   10.4160 C.3   391  LEU391      0.1596
    148  C         15.5120    0.3530   10.0030 C.2   391  LEU391      0.2287
    149  O         15.6940   -0.5230   10.8480 O.2   391  LEU391     -0.2864
    150  CB        15.8670    2.2300   11.6100 C.3   391  LEU391      0.0297
    151  CG        17.3030    2.6080   11.2350 C.3   391  LEU391      0.0022
    152  CD1       17.2910    3.8870   10.4110 C.3   391  LEU391      0.0001
    153  CD2       18.1410    2.7950   12.4910 C.3   391  LEU391      0.0001
@<TRIPOS>BOND
     1   127   126    2
     2   136   135    1
     3   126   125    1
     4   130   124    1
     5   130   129    1
     6   131   132    1
     7   134   133    2
     8   124   125    1
     9   135   137    1
    10   135   132    1
    11   125   128    1
    12   128   129    1
    13   132   133    1
    14   121   120    2
    15   148   147    1
    16   148   149    2
    17   141   140    2
    18   138   139    1
    19   120   119    1
    20   122   119    1
    21   122   123    1
    22   152   151    1
    23   147   146    1
    24   147   150    1
    25   140   146   am
    26   140   139    1
    27   139   142    1
    28   119   118    1
    29   151   150    1
    30   151   153    1
    31   118   111   am
    32   112   111    2
    33   142   143    1
    34   144   143    1
    35    51    50    2
    36   111   110    1
    37    49    50    1
    38    49    48    1
    39   143   145    1
    40    50    52   am
    41   107   106    2
    42   110   113    1
    43   110   109    1
    44    76    75    2
    45    52    53    1
    46   108   105    1
    47     1     2    1
    48   106   105    1
    49     5     2    1
    50   113   114    1
    51    53    54    1
    52    53    56    1
    53   105   104    1
    54    54    55    2
    55    79    78    1
    56    80    78    1
    57     2     3    1
    58    77    78    1
    59    77    74    1
    60    75    74    1
    61   116   115   ar
    62    74    73    1
    63    43    42    2
    64    58    56    1
    65    56    57    1
    66   114   115    1
    67   104    98   am
    68    42    41    1
    69    94    93    1
    70    99    98    2
    71   115   117   ar
    72    47    45   am
    73     3     6   am
    74     3     4    2
    75    17    16    1
    76    98    97    1
    77    14    16   ar
    78    14    12   ar
    79     6     7    1
    80    73    67   am
    81    92    91    2
    82    68    67    2
    83    16    15   ar
    84    12    11   ar
    85    45    44    1
    86    45    46    2
    87    93    95    1
    88    93    90    1
    89    41    44    1
    90    41    40    1
    91    67    66    1
    92    91    90    1
    93    15    13   ar
    94    11    13   ar
    95    11    10    1
    96    97   100    1
    97    97    96    1
    98     7    10    1
    99     7     8    1
   100    90    89    1
   101   100   101    1
   102    62    61    2
   103    64    63    1
   104    71    69    1
   105     8     9    2
   106    32    31    2
   107    66    69    1
   108    66    65    1
   109    61    60    1
   110    69    70    1
   111    89    83   am
   112   101   102    1
   113   101   103    1
   114    63    60    1
   115    31    30    1
   116    60    59    1
   117    84    83    2
   118    35    37   ar
   119    35    34   ar
   120    83    82    1
   121    37    39   ar
   122    33    30    1
   123    33    34    1
   124    70    72    1
   125    28    27   ar
   126    28    26   ar
   127    30    29    1
   128    27    25   ar
   129    26    24   ar
   130    34    36   ar
   131    88    86    1
   132    25    23   ar
   133    24    23   ar
   134    23    22    1
   135    82    81    1
   136    82    85    1
   137    39    38   ar
   138    22    19    1
   139    85    86    1
   140    36    38   ar
   141    86    87    1
   142    18    19    1
   143    19    20    1
   144    21    20    2
