@<TRIPOS>MOLECULE
tmp/1z9gA00.pdb
 157 151 0 0 0
SMALL
GASTEIGER

@<TRIPOS>ATOM
      1  N         32.5620   34.1430    1.0570 N.3   111  ASN111     -0.1225
      2  CA        33.7110   34.9550    1.4300 C.3   111  ASN111      0.1785
      3  C         34.0140   36.0230    0.4180 C.2   111  ASN111      0.2597
      4  O         35.1590   36.1320   -0.0330 O.2   111  ASN111     -0.2718
      5  CB        35.0000   34.0810    1.7320 C.3   111  ASN111      0.1169
      6  CG        34.9980   33.3120    3.0270 C.2   111  ASN111      0.2627
      7  OD1       34.5890   33.7820    4.0700 O.2   111  ASN111     -0.2716
      8  ND2       35.4630   32.0710    2.9620 N.am  111  ASN111     -0.0877
      9  N         33.0110   36.8050    0.0300 N.am  112  ASN112     -0.1960
     10  CA        33.2510   37.8580   -0.9180 C.3   112  ASN112      0.1819
     11  C         32.1210   38.8920   -0.8630 C.2   112  ASN112      0.2621
     12  O         31.1650   38.7430   -0.0620 O.2   112  ASN112     -0.2715
     13  CB        33.4480   37.2930   -2.3170 C.3   112  ASN112      0.1195
     14  CG        34.5090   37.9780   -3.1600 C.2   112  ASN112      0.2630
     15  OD1       34.8620   39.1350   -3.0190 O.2   112  ASN112     -0.2716
     16  ND2       35.0920   37.2240   -4.0620 N.am  112  ASN112     -0.0877
     17  N         32.2870   39.9070   -1.7130 N.am  113  ALA113     -0.1963
     18  CA        31.3500   41.0070   -1.8740 C.3   113  ALA113      0.1728
     19  C         31.5800   41.4230   -3.2990 C.2   113  ALA113      0.2616
     20  O         32.6710   41.1970   -3.7910 O.2   113  ALA113     -0.2715
     21  CB        31.4620   42.1520   -0.8750 C.3   113  ALA113      0.0334
     22  N         30.5770   41.9440   -4.0190 N.am  114  PHE114     -0.1974
     23  CA        30.7050   42.3640   -5.4060 C.3   114  PHE114      0.1639
     24  C         29.6280   43.3400   -5.8680 C.2   114  PHE114      0.2290
     25  O         28.5440   43.3940   -5.3450 O.2   114  PHE114     -0.2864
     26  CB        30.6370   41.1420   -6.3300 C.3   114  PHE114      0.0560
     27  CG        29.4900   40.1690   -6.2290 C.ar  114  PHE114     -0.0200
     28  CD1       28.4690   40.1870   -7.1840 C.ar  114  PHE114     -0.0042
     29  CD2       29.4320   39.2100   -5.2190 C.ar  114  PHE114     -0.0042
     30  CE1       27.4120   39.2700   -7.1320 C.ar  114  PHE114     -0.0003
     31  CE2       28.3750   38.2910   -5.1240 C.ar  114  PHE114     -0.0003
     32  CZ        27.3680   38.3320   -6.0950 C.ar  114  PHE114     -0.0000
     33  N         36.8150   35.4760    6.8940 N.3   130  PHE130     -0.1241
     34  CA        36.1830   36.7820    6.8840 C.3   130  PHE130      0.1605
     35  C         34.9850   36.7460    7.7990 C.2   130  PHE130      0.2264
     36  O         34.4270   35.6570    8.0100 O.2   130  PHE130     -0.2867
     37  CB        35.5410   37.0570    5.5110 C.3   130  PHE130      0.0534
     38  CG        36.4430   37.6300    4.4660 C.ar  130  PHE130     -0.0203
     39  CD1       36.8110   36.8750    3.3520 C.ar  130  PHE130     -0.0042
     40  CD2       36.9340   38.9350    4.5480 C.ar  130  PHE130     -0.0042
     41  CE1       37.6690   37.3240    2.3500 C.ar  130  PHE130     -0.0003
     42  CE2       37.7570   39.4210    3.5320 C.ar  130  PHE130     -0.0003
     43  CZ        38.1060   38.6370    2.4320 C.ar  130  PHE130     -0.0000
     44  N         31.2920   40.9460    5.1500 N.3   133  LEU133     -0.1245
     45  CA        32.0260   41.9450    4.3960 C.3   133  LEU133      0.1561
     46  C         31.6930   43.4330    4.4460 C.2   133  LEU133      0.2260
     47  O         32.5430   44.2870    4.2350 O.2   133  LEU133     -0.2867
     48  CB        32.4020   41.3940    3.0360 C.3   133  LEU133      0.0270
     49  CG        33.3990   40.2540    3.2070 C.3   133  LEU133      0.0019
     50  CD1       32.7050   38.9240    3.5760 C.3   133  LEU133      0.0001
     51  CD2       34.2600   40.2950    1.9570 C.3   133  LEU133      0.0001
     52  N         35.9450   48.1340    1.8640 N.3   139  VAL139     -0.1245
     53  CA        35.2510   47.0740    1.0350 C.3   139  VAL139      0.1561
     54  C         33.9720   47.6760    0.3010 C.2   139  VAL139      0.2260
     55  O         33.8040   47.5080   -0.9190 O.2   139  VAL139     -0.2867
     56  CB        34.8460   45.8790    1.9460 C.3   139  VAL139      0.0252
     57  CG1       33.9810   44.8790    1.1970 C.3   139  VAL139      0.0019
     58  CG2       36.1410   45.2060    2.3770 C.3   139  VAL139      0.0019
     59  N         34.9330   50.2470   -2.1810 N.3   142  HIS142     -0.1226
     60  CA        35.5750   49.5600   -3.3370 C.3   142  HIS142      0.1752
     61  C         34.4630   49.1530   -4.3020 C.2   142  HIS142      0.2595
     62  O         34.5380   49.2890   -5.5420 O.2   142  HIS142     -0.2718
     63  CB        36.4170   48.3340   -2.8050 C.3   142  HIS142      0.0759
     64  CG        37.0010   47.4050   -3.8270 C.ar  142  HIS142      0.0818
     65  ND1       38.3630   47.2990   -4.0820 N.ar  142  HIS142     -0.2268
     66  CD2       36.3630   46.5330   -4.6410 C.ar  142  HIS142      0.1154
     67  CE1       38.5420   46.4520   -5.0920 C.ar  142  HIS142      0.1986
     68  NE2       37.3480   45.9530   -5.4510 N.ar  142  HIS142     -0.2212
     69  N         33.3930   48.5920   -3.7020 N.am  143  GLU143     -0.1979
     70  CA        32.2180   48.1040   -4.4560 C.3   143  GLU143      0.1602
     71  C         31.4750   49.1310   -5.3310 C.2   143  GLU143      0.2287
     72  O         31.2130   49.0130   -6.5240 O.2   143  GLU143     -0.2864
     73  CB        31.3160   47.3000   -3.4780 C.3   143  GLU143      0.0415
     74  CG        31.8240   45.8330   -3.0870 C.3   143  GLU143      0.1163
     75  CD        32.6890   45.0560   -4.0920 C.2   143  GLU143      0.3649
     76  OE1       32.7010   45.0060   -5.3570 O.co2 143  GLU143     -0.2457
     77  OE2       33.4850   44.3340   -3.4200 O.co2 143  GLU143     -0.2457
     78  N         33.1670   50.4450   -8.1510 N.3   146  HIS146     -0.1241
     79  CA        33.0710   49.6910   -9.4440 C.3   146  HIS146      0.1621
     80  C         31.8830   50.2010  -10.3180 C.2   146  HIS146      0.2264
     81  O         31.8720   50.1200  -11.5660 O.2   146  HIS146     -0.2867
     82  CB        32.8060   48.1980   -9.1310 C.3   146  HIS146      0.0745
     83  CG        34.0790   47.3530   -8.8800 C.ar  146  HIS146      0.0817
     84  ND1       35.1560   47.3210   -9.8040 N.ar  146  HIS146     -0.2268
     85  CD2       34.3960   46.5640   -7.7920 C.ar  146  HIS146      0.1154
     86  CE1       36.0680   46.5020   -9.3260 C.ar  146  HIS146      0.1986
     87  NE2       35.6530   46.0410   -8.1290 N.ar  146  HIS146     -0.2212
     88  N         36.7400   43.9820  -17.5360 N.3   157  TYR157     -0.1241
     89  CA        37.2530   43.2480  -16.4160 C.3   157  TYR157      0.1605
     90  C         38.2120   42.1360  -16.7220 C.2   157  TYR157      0.2264
     91  O         38.0360   41.0320  -16.2240 O.2   157  TYR157     -0.2867
     92  CB        36.1540   42.7850  -15.4610 C.3   157  TYR157      0.0534
     93  CG        36.5150   42.7120  -13.9910 C.ar  157  TYR157     -0.0201
     94  CD1       36.4920   41.4830  -13.3240 C.ar  157  TYR157     -0.0009
     95  CD2       36.8610   43.8320  -13.2230 C.ar  157  TYR157     -0.0009
     96  CE1       36.7650   41.3960  -11.9540 C.ar  157  TYR157      0.0417
     97  CE2       37.1500   43.7730  -11.8490 C.ar  157  TYR157      0.0417
     98  CZ        37.0920   42.5310  -11.2020 C.ar  157  TYR157      0.1957
     99  OH        37.3430   42.3940   -9.8510 O.3   157  TYR157     -0.2866
    100  N         40.2630   47.3190  -10.7950 N.3   166  GLU166     -0.1245
    101  CA        40.4920   46.8760   -9.4150 C.3   166  GLU166      0.1567
    102  C         41.2610   47.9410   -8.5990 C.2   166  GLU166      0.2260
    103  O         40.8740   48.2390   -7.4690 O.2   166  GLU166     -0.2867
    104  CB        41.2480   45.4830   -9.4010 C.3   166  GLU166      0.0388
    105  CG        40.2780   44.3160   -9.5990 C.3   166  GLU166      0.1160
    106  CD        39.2200   44.4600   -8.5660 C.2   166  GLU166      0.3649
    107  OE1       38.0730   44.4470   -8.8500 O.co2 166  GLU166     -0.2457
    108  OE2       39.6480   44.6160   -7.3140 O.co2 166  GLU166     -0.2457
    109  N         43.9860   47.0600    2.5760 N.3   188  ILE188     -0.1231
    110  CA        42.6530   46.7020    2.1000 C.3   188  ILE188      0.1692
    111  C         41.9950   45.4930    2.8200 C.2   188  ILE188      0.2592
    112  O         42.5400   44.3570    2.7530 O.2   188  ILE188     -0.2718
    113  CB        42.5910   46.3930    0.6100 C.3   188  ILE188      0.0266
    114  CG1       43.2240   47.5420   -0.1490 C.3   188  ILE188      0.0019
    115  CG2       41.1650   46.0180    0.1120 C.3   188  ILE188      0.0020
    116  CD1       42.4590   48.8370    0.1460 C.3   188  ILE188      0.0001
    117  N         40.7890   45.7300    3.4620 N.am  189  GLY189     -0.1957
    118  CA        39.9710   44.7340    4.0750 C.3   189  GLY189      0.1869
    119  C         40.4150   44.3070    5.4150 C.2   189  GLY189      0.2309
    120  O         39.8980   43.3460    5.9400 O.2   189  GLY189     -0.2863
    121  N         43.9730   41.9840    3.3140 N.3   202  LEU202     -0.1231
    122  CA        43.9050   41.1900    2.1220 C.3   202  LEU202      0.1693
    123  C         44.9390   41.5710    0.9960 C.2   202  LEU202      0.2591
    124  O         45.4420   40.7280    0.1920 O.2   202  LEU202     -0.2718
    125  CB        42.3860   41.1780    1.6970 C.3   202  LEU202      0.0284
    126  CG        42.0660   40.5880    0.3610 C.3   202  LEU202      0.0019
    127  CD1       42.0940   39.1060    0.6920 C.3   202  LEU202      0.0001
    128  CD2       40.6250   40.9220   -0.0690 C.3   202  LEU202      0.0001
    129  N         45.1690   42.8910    0.8720 N.am  203  ARG203     -0.1980
    130  CA        46.0560   43.4970   -0.0640 C.3   203  ARG203      0.1597
    131  C         46.6140   44.6760    0.6770 C.2   203  ARG203      0.2287
    132  O         46.0030   45.1500    1.6550 O.2   203  ARG203     -0.2864
    133  CB        45.3950   44.0930   -1.2680 C.3   203  ARG203      0.0334
    134  CG        44.8550   43.0740   -2.2290 C.3   203  ARG203      0.0492
    135  CD        44.4750   43.6660   -3.6200 C.3   203  ARG203      0.2205
    136  NE        43.1350   44.3060   -3.6270 N.pl3 203  ARG203     -0.0865
    137  CZ        41.9330   43.6450   -3.6050 C.cat 203  ARG203      0.5346
    138  NH1       41.8480   42.3320   -3.5340 N.pl3 203  ARG203      0.1354
    139  NH2       40.7840   44.2990   -3.6500 N.pl3 203  ARG203      0.1354
    140  N         42.2840   34.5130  -12.4240 N.3   226  ASP226     -0.1239
    141  CA        41.8030   35.7820  -11.9100 C.3   226  ASP226      0.1674
    142  C         41.5880   36.7830  -13.0140 C.2   226  ASP226      0.2266
    143  O         41.9360   37.9440  -12.9250 O.2   226  ASP226     -0.2867
    144  CB        42.7750   36.2840  -10.8480 C.3   226  ASP226      0.1410
    145  CG        42.2150   37.5230  -10.1890 C.2   226  ASP226      0.3668
    146  OD1       41.0450   37.7190   -9.9250 O.co2 226  ASP226     -0.2456
    147  OD2       43.1580   38.3650   -9.9220 O.co2 226  ASP226     -0.2456
    148  N         43.1420   41.0760   -9.8250 N.3   231  HIS231     -0.1241
    149  CA        43.3780   41.3460   -8.4120 C.3   231  HIS231      0.1621
    150  C         44.8860   41.2330   -7.9960 C.2   231  HIS231      0.2264
    151  O         45.2820   41.4460   -6.8370 O.2   231  HIS231     -0.2867
    152  CB        42.5700   40.4880   -7.3700 C.3   231  HIS231      0.0745
    153  CG        41.0860   40.5940   -7.5370 C.ar  231  HIS231      0.0817
    154  ND1       40.4140   39.9430   -8.5870 N.ar  231  HIS231     -0.2268
    155  CD2       40.1960   41.2710   -6.7810 C.ar  231  HIS231      0.1154
    156  CE1       39.1340   40.2810   -8.4730 C.ar  231  HIS231      0.1986
    157  NE2       38.9860   41.0530   -7.3730 N.ar  231  HIS231     -0.2212
@<TRIPOS>BOND
     1    88    89    1
     2    90    89    1
     3    90    91    2
     4    89    92    1
     5    92    93    1
     6    93    94   ar
     7    93    95   ar
     8    94    96   ar
     9    95    97   ar
    10   142   143    2
    11   142   141    1
    12   140   141    1
    13    96    98   ar
    14   141   144    1
    15    97    98   ar
    16    81    80    2
    17    98    99    1
    18   144   145    1
    19   100   101    1
    20    80    79    1
    21   145   146   ar
    22   145   147   ar
    23   148   149    1
    24    84    86   ar
    25    84    83   ar
    26   105   104    1
    27   105   106    1
    28    79    82    1
    29    79    78    1
    30   101   104    1
    31   101   102    1
    32    86    87   ar
    33    82    83    1
    34    83    85   ar
    35   107   106   ar
    36   102   103    2
    37   154   156   ar
    38   154   153   ar
    39   106   108   ar
    40   156   157   ar
    41   149   150    1
    42   149   152    1
    43    87    85   ar
    44   150   151    2
    45   153   152    1
    46   153   155   ar
    47   157   155   ar
    48    28    30   ar
    49    28    27   ar
    50    30    32   ar
    51    72    71    2
    52    26    27    1
    53    26    23    1
    54    27    29   ar
    55    32    31   ar
    56    24    23    1
    57    24    25    2
    58    62    61    2
    59    68    67   ar
    60    68    66   ar
    61    23    22    1
    62    76    75   ar
    63    71    70    1
    64    29    31   ar
    65    67    65   ar
    66    66    64   ar
    67    70    69    1
    68    70    73    1
    69    61    69   am
    70    61    60    1
    71    75    77   ar
    72    75    74    1
    73    65    64   ar
    74    16    14   am
    75    22    19   am
    76    64    63    1
    77    20    19    2
    78   139   137    1
    79   136   135    1
    80   136   137    2
    81   135   134    1
    82   137   138    1
    83    73    74    1
    84    60    63    1
    85    60    59    1
    86    19    18    1
    87    14    15    2
    88    14    13    1
    89    13    10    1
    90   134   133    1
    91    18    17    1
    92    18    21    1
    93    17    11   am
    94   133   130    1
    95    55    54    2
    96    10    11    1
    97    10     9    1
    98    11    12    2
    99   114   116    1
   100   114   113    1
   101   128   126    1
   102   130   131    1
   103   130   129    1
   104     4     3    2
   105     9     3   am
   106   115   113    1
   107   124   123    2
   108    54    53    1
   109   126   127    1
   110   126   125    1
   111     3     2    1
   112   113   110    1
   113   131   132    2
   114   129   123   am
   115   123   122    1
   116    53    52    1
   117    53    56    1
   118     1     2    1
   119    57    56    1
   120     2     5    1
   121   125   122    1
   122     5     6    1
   123    56    58    1
   124    51    49    1
   125   110   109    1
   126   110   111    1
   127   122   121    1
   128    41    43   ar
   129    41    39   ar
   130    43    42   ar
   131   112   111    2
   132   111   117   am
   133     8     6   am
   134     6     7    2
   135    48    49    1
   136    48    45    1
   137    49    50    1
   138    39    38   ar
   139   117   118    1
   140    42    40   ar
   141   118   119    1
   142    47    46    2
   143    45    46    1
   144    45    44    1
   145    38    40   ar
   146    38    37    1
   147   119   120    2
   148    37    34    1
   149    34    33    1
   150    34    35    1
   151    35    36    2
