@<TRIPOS>MOLECULE
tmp/1z9hC00.pdb
 162 155 0 0 0
SMALL
GASTEIGER

@<TRIPOS>ATOM
      1  N         21.7060   12.3830   19.3160 N.3     8  TYR8       -0.1241
      2  CA        21.3140   11.9530   17.9820 C.3     8  TYR8        0.1605
      3  C         22.7160   11.7150   17.4500 C.2     8  TYR8        0.2264
      4  O         23.4350   12.6600   17.1450 O.2     8  TYR8       -0.2867
      5  CB        20.6490   13.0820   17.1930 C.3     8  TYR8        0.0534
      6  CG        19.2580   13.4270   17.6580 C.ar    8  TYR8       -0.0201
      7  CD1       18.3740   12.4320   18.0780 C.ar    8  TYR8       -0.0009
      8  CD2       18.8300   14.7530   17.6990 C.ar    8  TYR8       -0.0009
      9  CE1       17.1000   12.7520   18.5310 C.ar    8  TYR8        0.0417
     10  CE2       17.5640   15.0830   18.1500 C.ar    8  TYR8        0.0417
     11  CZ        16.7030   14.0800   18.5660 C.ar    8  TYR8        0.1957
     12  OH        15.4550   14.4160   19.0310 O.3     8  TYR8       -0.2866
     13  N         24.2970   10.9790   14.6550 N.3    10  THR10      -0.1203
     14  CA        24.7180   11.7200   13.4680 C.3    10  THR10       0.1994
     15  C         24.5310   13.2520   13.4850 C.2    10  THR10       0.2618
     16  O         24.6860   13.9090   12.4570 O.2    10  THR10      -0.2717
     17  CB        24.0170   11.1490   12.2380 C.3    10  THR10       0.1784
     18  OG1       22.6290   10.9660   12.5280 O.3    10  THR10      -0.2211
     19  CG2       24.5970    9.8060   11.8920 C.3    10  THR10       0.0376
     20  N         24.1970   13.8170   14.6400 N.am   11  CYS11      -0.1956
     21  CA        23.9850   15.2530   14.7500 C.3    11  CYS11       0.1828
     22  C         25.2700   15.9690   15.1520 C.2    11  CYS11       0.2467
     23  O         25.9730   15.5120   16.0500 O.2    11  CYS11      -0.2730
     24  CB        22.8940   15.5210   15.7770 C.3    11  CYS11       0.0996
     25  SG        22.8080   17.2160   16.3250 S.3    11  CYS11      -0.0797
     26  N         25.5870   17.1110   14.5020 N.am   12  PRO12      -0.2715
     27  CA        26.8030   17.8730   14.8120 C.3    12  PRO12       0.1536
     28  C         26.8790   18.3790   16.2390 C.2    12  PRO12       0.2598
     29  O         27.9580   18.6130   16.7600 O.2    12  PRO12      -0.2715
     30  CB        26.7900   19.0170   13.7990 C.3    12  PRO12       0.0310
     31  CG        25.3870   19.1560   13.3940 C.3    12  PRO12       0.0237
     32  CD        24.7970   17.7710   13.4480 C.3    12  PRO12       0.0939
     33  N         25.7310   18.5560   16.8750 N.am   13  PHE13      -0.1974
     34  CA        25.7090   19.0450   18.2450 C.3    13  PHE13       0.1639
     35  C         26.0980   17.9730   19.2380 C.2    13  PHE13       0.2290
     36  O         26.6850   18.2690   20.2850 O.2    13  PHE13      -0.2864
     37  CB        24.3270   19.6150   18.5700 C.3    13  PHE13       0.0560
     38  CG        23.8990   20.6870   17.6190 C.ar   13  PHE13      -0.0200
     39  CD1       22.7500   20.5420   16.8640 C.ar   13  PHE13      -0.0042
     40  CD2       24.6940   21.8110   17.4250 C.ar   13  PHE13      -0.0042
     41  CE1       22.3930   21.4960   15.9230 C.ar   13  PHE13      -0.0003
     42  CE2       24.3490   22.7650   16.4950 C.ar   13  PHE13      -0.0003
     43  CZ        23.1920   22.6060   15.7380 C.ar   13  PHE13      -0.0000
     44  N         20.7380    6.7960   22.9880 N.3    32  GLU32      -0.1245
     45  CA        20.3470    7.2910   21.6830 C.3    32  GLU32       0.1567
     46  C         18.8710    7.6500   21.6900 C.2    32  GLU32       0.2260
     47  O         18.0310    6.8270   22.0200 O.2    32  GLU32      -0.2867
     48  CB        20.6130    6.2160   20.6340 C.3    32  GLU32       0.0388
     49  CG        20.5040    6.7090   19.2220 C.3    32  GLU32       0.1160
     50  CD        21.6350    7.6380   18.8640 C.2    32  GLU32       0.3649
     51  OE1       22.6630    7.6010   19.5720 O.co2  32  GLU32      -0.2457
     52  OE2       21.4990    8.4010   17.8820 O.co2  32  GLU32      -0.2457
     53  N         14.4800   10.2620   17.2680 N.3    35  PRO35      -0.2116
     54  CA        14.0900   11.5510   16.6950 C.3    35  PRO35       0.1372
     55  C         12.6000   11.7450   16.4400 C.2    35  PRO35       0.2244
     56  O         12.1150   12.8740   16.4340 O.2    35  PRO35      -0.2868
     57  CB        14.9070   11.6360   15.4030 C.3    35  PRO35       0.0268
     58  CG        15.4250   10.2720   15.1620 C.3    35  PRO35       0.0207
     59  CD        15.5580    9.6280   16.4930 C.3    35  PRO35       0.0892
     60  N         18.3220   18.1280   21.9640 N.3    49  VAL49      -0.1245
     61  CA        19.4010   17.2080   22.2980 C.3    49  VAL49       0.1561
     62  C         20.6180   17.7320   21.5500 C.2    49  VAL49       0.2260
     63  O         20.4860   18.3410   20.4920 O.2    49  VAL49      -0.2867
     64  CB        19.0930   15.7420   21.8830 C.3    49  VAL49       0.0252
     65  CG1       17.6220   15.5830   21.5520 C.3    49  VAL49       0.0019
     66  CG2       19.9530   15.3390   20.7190 C.3    49  VAL49       0.0019
     67  N         28.0030   24.4760   10.6970 N.3   144  VAL144     -0.1245
     68  CA        26.9500   23.4680   10.6690 C.3   144  VAL144      0.1561
     69  C         25.9530   23.7230    9.5480 C.2   144  VAL144      0.2260
     70  O         25.4290   22.7840    8.9640 O.2   144  VAL144     -0.2867
     71  CB        26.1930   23.3670   12.0090 C.3   144  VAL144      0.0252
     72  CG1       27.1500   23.6000   13.1600 C.3   144  VAL144      0.0019
     73  CG2       25.0570   24.3500   12.0470 C.3   144  VAL144      0.0019
     74  N         26.4390   21.6230    6.3870 N.3   147  ILE147     -0.1231
     75  CA        26.2820   20.1660    6.4270 C.3   147  ILE147      0.1692
     76  C         25.0940   19.6660    5.6160 C.2   147  ILE147      0.2592
     77  O         25.2570   18.9590    4.6270 O.2   147  ILE147     -0.2718
     78  CB        26.0690   19.6420    7.8680 C.3   147  ILE147      0.0266
     79  CG1       27.1820   20.1180    8.8100 C.3   147  ILE147      0.0019
     80  CG2       25.9900   18.1330    7.8490 C.3   147  ILE147      0.0020
     81  CD1       28.5850   19.8340    8.3380 C.3   147  ILE147      0.0001
     82  N         23.8950   20.0360    6.0450 N.am  148  SER148     -0.1952
     83  CA        22.6840   19.6000    5.3730 C.3   148  SER148      0.1924
     84  C         22.6690   19.8820    3.8790 C.2   148  SER148      0.2314
     85  O         22.5900   18.9560    3.0780 O.2   148  SER148     -0.2863
     86  CB        21.4600   20.2270    6.0310 C.3   148  SER148      0.2116
     87  OG        21.3400   19.7950    7.3710 O.3   148  SER148     -0.2180
     88  N         25.0410   17.3530    2.2960 N.3   151  VAL151     -0.1231
     89  CA        24.7870   15.9130    2.3770 C.3   151  VAL151      0.1692
     90  C         23.4210   15.5170    1.8210 C.2   151  VAL151      0.2592
     91  O         23.1270   14.3340    1.6930 O.2   151  VAL151     -0.2718
     92  CB        24.8790   15.4130    3.8340 C.3   151  VAL151      0.0266
     93  CG1       26.3000   15.5830    4.3650 C.3   151  VAL151      0.0020
     94  CG2       23.9060   16.1850    4.7110 C.3   151  VAL151      0.0020
     95  N         22.5880   16.5070    1.5070 N.am  152  TYR152     -0.1976
     96  CA        21.2510   16.2880    0.9490 C.3   152  TYR152      0.1639
     97  C         21.1740   16.9960   -0.3910 C.2   152  TYR152      0.2290
     98  O         20.1050   17.1200   -0.9870 O.2   152  TYR152     -0.2864
     99  CB        20.1700   16.8670    1.8660 C.3   152  TYR152      0.0560
    100  CG        19.9980   16.1280    3.1710 C.ar  152  TYR152     -0.0198
    101  CD1       19.6740   14.7690    3.1940 C.ar  152  TYR152     -0.0009
    102  CD2       20.1690   16.7900    4.3920 C.ar  152  TYR152     -0.0009
    103  CE1       19.5240   14.0830    4.4120 C.ar  152  TYR152      0.0417
    104  CE2       20.0240   16.1210    5.6100 C.ar  152  TYR152      0.0417
    105  CZ        19.7020   14.7720    5.6120 C.ar  152  TYR152      0.1957
    106  OH        19.5530   14.1240    6.8140 O.3   152  TYR152     -0.2866
    107  N         22.4620    9.5720    3.0280 N.3   161  SER161     -0.1217
    108  CA        22.5090   10.2850    4.2940 C.3   161  SER161      0.1889
    109  C         21.5120    9.7230    5.2810 C.2   161  SER161      0.2288
    110  O         21.8580    9.4370    6.4260 O.2   161  SER161     -0.2866
    111  CB        22.2180   11.7670    4.0730 C.3   161  SER161      0.2089
    112  OG        23.3060   12.4080    3.4320 O.3   161  SER161     -0.2183
    113  N         22.2870    6.2310    6.5030 N.3   164  TYR164     -0.1227
    114  CA        23.2920    6.3400    7.5550 C.3   164  TYR164      0.1736
    115  C         22.7030    6.8840    8.8550 C.2   164  TYR164      0.2595
    116  O         23.0940    6.4650    9.9370 O.2   164  TYR164     -0.2718
    117  CB        24.4330    7.2160    7.0160 C.3   164  TYR164      0.0548
    118  CG        25.2790    7.9900    8.0050 C.ar  164  TYR164     -0.0200
    119  CD1       26.0470    7.3490    8.9750 C.ar  164  TYR164     -0.0009
    120  CD2       25.3810    9.3770    7.9020 C.ar  164  TYR164     -0.0009
    121  CE1       26.9030    8.0880    9.8170 C.ar  164  TYR164      0.0417
    122  CE2       26.2250   10.1180    8.7300 C.ar  164  TYR164      0.0417
    123  CZ        26.9840    9.4770    9.6820 C.ar  164  TYR164      0.1957
    124  OH        27.8130   10.2330   10.4900 O.3   164  TYR164     -0.2866
    125  N         21.7520    7.8060    8.7450 N.am  165  ILE165     -0.1980
    126  CA        21.1110    8.3930    9.9160 C.3   165  ILE165      0.1595
    127  C         20.2560    7.3560   10.6250 C.2   165  ILE165      0.2287
    128  O         20.3160    7.2240   11.8470 O.2   165  ILE165     -0.2864
    129  CB        20.2150    9.6030    9.5280 C.3   165  ILE165      0.0276
    130  CG1       21.0530   10.8760    9.4960 C.3   165  ILE165      0.0022
    131  CG2       19.0850    9.7820   10.5260 C.3   165  ILE165      0.0022
    132  CD1       20.3280   12.0390    8.8830 C.3   165  ILE165      0.0001
    133  N         21.2830    5.9250   13.9330 N.3   169  GLY169     -0.1225
    134  CA        20.3940    6.3640   14.9940 C.3   169  GLY169      0.1811
    135  C         19.4310    5.3200   15.5410 C.2   169  GLY169      0.2280
    136  O         19.5900    4.1210   15.3040 O.2   169  GLY169     -0.2866
    137  N         15.6160    4.1740   15.4440 N.3   171  PHE171     -0.1241
    138  CA        14.3050    4.2010   14.7950 C.3   171  PHE171      0.1605
    139  C         13.7090    2.7960   14.8140 C.2   171  PHE171      0.2264
    140  O         14.4320    1.8010   14.7000 O.2   171  PHE171     -0.2867
    141  CB        14.4240    4.6160   13.3230 C.3   171  PHE171      0.0534
    142  CG        14.8080    6.0430   13.1040 C.ar  171  PHE171     -0.0203
    143  CD1       16.1430    6.4270   13.1220 C.ar  171  PHE171     -0.0042
    144  CD2       13.8430    6.9830   12.7690 C.ar  171  PHE171     -0.0042
    145  CE1       16.5160    7.7270   12.7980 C.ar  171  PHE171     -0.0003
    146  CE2       14.2010    8.2870   12.4430 C.ar  171  PHE171     -0.0003
    147  CZ        15.5420    8.6590   12.4540 C.ar  171  PHE171     -0.0000
    148  N         30.6310   14.3650   11.5580 N.3   244  VAL244     -0.1245
    149  CA        29.2660   13.9610   11.2770 C.3   244  VAL244      0.1561
    150  C         29.0310   13.5270    9.8150 C.2   244  VAL244      0.2260
    151  O         28.1310   12.7310    9.5360 O.2   244  VAL244     -0.2867
    152  CB        28.3190   15.1220   11.6720 C.3   244  VAL244      0.0252
    153  CG1       27.5400   15.6180   10.4670 C.3   244  VAL244      0.0019
    154  CG2       27.4160   14.6850   12.8180 C.3   244  VAL244      0.0019
    155  N         30.1730    9.9680    3.9370 N.3   248  LEU248     -0.1245
    156  CA        29.3570   10.5230    2.8670 C.3   248  LEU248      0.1561
    157  C         30.2290   11.1800    1.8080 C.2   248  LEU248      0.2260
    158  O         31.3750   11.5460    2.0640 O.2   248  LEU248     -0.2867
    159  CB        28.3890   11.5630    3.4230 C.3   248  LEU248      0.0270
    160  CG        27.1780   11.1530    4.2640 C.3   248  LEU248      0.0019
    161  CD1       27.1020    9.6530    4.4540 C.3   248  LEU248      0.0001
    162  CD2       27.2870   11.8640    5.5950 C.3   248  LEU248      0.0001
@<TRIPOS>BOND
     1    98    97    2
     2    97    96    1
     3    96    95    1
     4    96    99    1
     5    95    90   am
     6    91    90    2
     7   157   158    2
     8   157   156    1
     9    90    89    1
    10    99   100    1
    11    88    89    1
    12    89    92    1
    13   156   159    1
    14   156   155    1
    15   107   108    1
    16    85    84    2
    17   100   101   ar
    18   100   102   ar
    19   101   103   ar
    20   159   160    1
    21   112   111    1
    22    92    93    1
    23    92    94    1
    24    84    83    1
    25   111   108    1
    26   160   161    1
    27   160   162    1
    28   108   109    1
    29   102   104   ar
    30   103   105   ar
    31    77    76    2
    32   109   110    2
    33    83    86    1
    34    83    82    1
    35   104   105   ar
    36   105   106    1
    37    76    82   am
    38    76    75    1
    39    86    87    1
    40    74    75    1
    41    75    78    1
    42   113   114    1
    43   117   114    1
    44   117   118    1
    45   114   115    1
    46    80    78    1
    47    78    79    1
    48   120   118   ar
    49   120   122   ar
    50   118   119   ar
    51    81    79    1
    52   122   123   ar
    53   125   115   am
    54   125   126    1
    55   115   116    2
    56   132   130    1
    57    70    69    2
    58   119   121   ar
    59   130   129    1
    60   129   126    1
    61   129   131    1
    62   151   150    2
    63    69    68    1
    64   123   121   ar
    65   123   124    1
    66   150   149    1
    67   126   127    1
    68   153   152    1
    69   127   128    2
    70    68    67    1
    71    68    71    1
    72   149   148    1
    73   149   152    1
    74   152   154    1
    75    19    17    1
    76    71    73    1
    77    71    72    1
    78    17    18    1
    79    17    14    1
    80   146   147   ar
    81   146   144   ar
    82   147   145   ar
    83    16    15    2
    84   144   142   ar
    85   145   143   ar
    86   142   143   ar
    87   142   141    1
    88   141   138    1
    89    31    32    1
    90    31    30    1
    91    32    26    1
    92    14    15    1
    93    14    13    1
    94    15    20   am
    95    30    27    1
    96   133   134    1
    97    26    27    1
    98    26    22   am
    99    20    21    1
   100   140   139    2
   101    21    22    1
   102    21    24    1
   103   138   139    1
   104   138   137    1
   105    27    28    1
   106   134   135    1
   107    22    23    2
   108    58    57    1
   109    58    59    1
   110   136   135    2
   111    57    54    1
   112    43    41   ar
   113    43    42   ar
   114    24    25    1
   115    41    39   ar
   116    28    29    2
   117    28    33   am
   118    56    55    2
   119    55    54    1
   120    59    53    1
   121    42    40   ar
   122    54    53    1
   123    39    38   ar
   124    33    34    1
   125     4     3    2
   126     5     6    1
   127     5     2    1
   128    40    38   ar
   129     3     2    1
   130    38    37    1
   131     6     8   ar
   132     6     7   ar
   133     8    10   ar
   134    52    50   ar
   135     2     1    1
   136     7     9   ar
   137    10    11   ar
   138    34    37    1
   139    34    35    1
   140     9    11   ar
   141    11    12    1
   142    50    49    1
   143    50    51   ar
   144    49    48    1
   145    35    36    2
   146    63    62    2
   147    48    45    1
   148    66    64    1
   149    62    61    1
   150    65    64    1
   151    45    46    1
   152    45    44    1
   153    46    47    2
   154    64    61    1
   155    60    61    1
