@<TRIPOS>MOLECULE
tmp/1z9yA00.pdb
 170 163 0 0 0
SMALL
GASTEIGER

@<TRIPOS>ATOM
      1  N         17.7200    1.9270    3.6650 N.3    59  ASN59      -0.1240
      2  CA        18.8170    2.8010    4.1060 C.3    59  ASN59       0.1653
      3  C         20.1180    2.0520    4.3730 C.2    59  ASN59       0.2266
      4  O         21.0080    2.6420    4.9970 O.2    59  ASN59      -0.2867
      5  CB        18.4580    3.5920    5.3660 C.3    59  ASN59       0.1155
      6  CG        18.0090    2.6880    6.4980 C.2    59  ASN59       0.2627
      7  OD1       18.4680    1.5530    6.6210 O.2    59  ASN59      -0.2716
      8  ND2       17.1000    3.1940    7.3260 N.am   59  ASN59      -0.0877
      9  N         20.5280   -0.5610    6.3180 N.3    61  HIS61      -0.1241
     10  CA        20.4380   -1.4240    7.5070 C.3    61  HIS61       0.1621
     11  C         19.0040   -1.9090    7.7100 C.2    61  HIS61       0.2264
     12  O         18.7610   -2.9790    8.2750 O.2    61  HIS61      -0.2867
     13  CB        20.9540   -0.7230    8.7460 C.3    61  HIS61       0.0745
     14  CG        20.3570    0.5400    9.2380 C.ar   61  HIS61       0.0817
     15  ND1       20.8050    1.7790    8.8130 N.ar   61  HIS61      -0.2268
     16  CD2       19.3820    0.8080   10.1540 C.ar   61  HIS61       0.1154
     17  CE1       20.1180    2.7280    9.4200 C.ar   61  HIS61       0.1986
     18  NE2       19.2360    2.1680   10.2410 N.ar   61  HIS61      -0.2212
     19  N         12.8560    2.2650    5.8570 N.3    64  ASN64      -0.1240
     20  CA        11.9960    3.2250    6.5250 C.3    64  ASN64       0.1653
     21  C         10.7680    3.5220    5.6670 C.2    64  ASN64       0.2266
     22  O         10.9970    3.8000    4.4850 O.2    64  ASN64      -0.2867
     23  CB        12.7190    4.5580    6.7500 C.3    64  ASN64       0.1155
     24  CG        13.7660    4.4490    7.8310 C.2    64  ASN64       0.2627
     25  OD1       13.7030    3.5230    8.6420 O.2    64  ASN64      -0.2716
     26  ND2       14.7000    5.3920    7.8340 N.am   64  ASN64      -0.0877
     27  N          8.5690    8.1210   11.0770 N.3    89  GLN89      -0.1245
     28  CA         8.8180    6.9460   10.2470 C.3    89  GLN89       0.1566
     29  C          8.5630    5.6780   11.0490 C.2    89  GLN89       0.2260
     30  O          8.4830    5.7340   12.2810 O.2    89  GLN89      -0.2867
     31  CB        10.2690    6.9330    9.7500 C.3    89  GLN89       0.0367
     32  CG        11.2780    7.0730   10.8950 C.3    89  GLN89       0.0905
     33  CD        12.0670    5.8020   11.1380 C.2    89  GLN89       0.2608
     34  OE1       11.4970    4.7050   11.1750 O.2    89  GLN89      -0.2717
     35  NE2       13.3790    5.9570   11.3230 N.am   89  GLN89      -0.0878
     36  N          9.9600    1.3610   10.9120 N.3    91  HIS91      -0.1241
     37  CA        10.8480    0.3850   10.2910 C.3    91  HIS91       0.1621
     38  C         10.7460   -0.9050   11.1040 C.2    91  HIS91       0.2264
     39  O         10.0830   -0.9020   12.1510 O.2    91  HIS91      -0.2867
     40  CB        12.2910    0.8990   10.2310 C.3    91  HIS91       0.0745
     41  CG        12.8190    1.1080   11.6210 C.ar   91  HIS91       0.0817
     42  ND1       12.6610    2.3250   12.2530 N.ar   91  HIS91      -0.2268
     43  CD2       13.4580    0.3170   12.5050 C.ar   91  HIS91       0.1154
     44  CE1       13.1990    2.2490   13.4880 C.ar   91  HIS91       0.1986
     45  NE2       13.6840    1.0430   13.6400 N.ar   91  HIS91      -0.2212
     46  N         13.0780   -4.6470   12.4490 N.3    93  HIS93      -0.1241
     47  CA        14.2600   -5.4880   12.5900 C.3    93  HIS93       0.1621
     48  C         13.8420   -6.9550   12.4740 C.2    93  HIS93       0.2264
     49  O         12.7870   -7.2950   13.0170 O.2    93  HIS93      -0.2867
     50  CB        14.9450   -5.2990   13.9510 C.3    93  HIS93       0.0745
     51  CG        15.1690   -3.8400   14.2320 C.ar   93  HIS93       0.0817
     52  ND1       16.3980   -3.2610   14.0110 N.ar   93  HIS93      -0.2268
     53  CD2       14.3550   -2.8550   14.6640 C.ar   93  HIS93       0.1154
     54  CE1       16.3400   -1.9810   14.3240 C.ar   93  HIS93       0.1986
     55  NE2       15.1260   -1.7010   14.7270 N.ar   93  HIS93      -0.2212
     56  N          9.1490   -0.8160   14.7430 N.3   116  HIS116     -0.1241
     57  CA         9.3950    0.3970   15.5000 C.3   116  HIS116      0.1621
     58  C          8.7060    1.5800   14.8300 C.2   116  HIS116      0.2264
     59  O          9.1240    1.8820   13.7090 O.2   116  HIS116     -0.2867
     60  CB        10.9100    0.6600   15.5560 C.3   116  HIS116      0.0745
     61  CG        11.5580   -0.3140   16.5120 C.ar  116  HIS116      0.0817
     62  ND1       12.9090   -0.5570   16.5020 N.ar  116  HIS116     -0.2268
     63  CD2       11.0490   -1.0820   17.4970 C.ar  116  HIS116      0.1154
     64  CE1       13.2190   -1.4380   17.4250 C.ar  116  HIS116      0.1986
     65  NE2       12.0970   -1.7820   18.0560 N.ar  116  HIS116     -0.2212
     66  N          8.4880    5.4170   15.0810 N.3   118  VAL118     -0.1245
     67  CA         9.3360    6.4030   15.7540 C.3   118  VAL118      0.1561
     68  C          8.6300    7.7510   15.8070 C.2   118  VAL118      0.2260
     69  O          8.1070    8.1700   14.7540 O.2   118  VAL118     -0.2867
     70  CB        10.6830    6.5370   14.9960 C.3   118  VAL118      0.0252
     71  CG1       11.5490    7.6450   15.5800 C.3   118  VAL118      0.0019
     72  CG2       11.4100    5.1940   14.9770 C.3   118  VAL118      0.0019
     73  N         12.9770   17.4140   14.7550 N.3   127  PHE127     -0.1241
     74  CA        13.5290   16.1290   15.1210 C.3   127  PHE127      0.1605
     75  C         14.9470   16.3370   15.6440 C.2   127  PHE127      0.2264
     76  O         15.3660   15.7330   16.6260 O.2   127  PHE127     -0.2867
     77  CB        13.5350   15.1990   13.8990 C.3   127  PHE127      0.0534
     78  CG        14.0140   13.8020   14.2830 C.ar  127  PHE127     -0.0203
     79  CD1       13.0660   12.8830   14.7020 C.ar  127  PHE127     -0.0042
     80  CD2       15.3390   13.4190   14.2140 C.ar  127  PHE127     -0.0042
     81  CE1       13.4050   11.5910   15.0710 C.ar  127  PHE127     -0.0003
     82  CE2       15.6740   12.1610   14.6230 C.ar  127  PHE127     -0.0003
     83  CZ        14.7370   11.2430   15.0540 C.ar  127  PHE127     -0.0000
     84  N         16.3730   15.1220   19.4400 N.3   131  VAL131     -0.1245
     85  CA        17.3490   14.0870   19.7960 C.3   131  VAL131      0.1561
     86  C         18.5380   14.6650   20.5470 C.2   131  VAL131      0.2260
     87  O         19.6110   14.0840   20.7320 O.2   131  VAL131     -0.2867
     88  CB        17.7420   13.2700   18.5560 C.3   131  VAL131      0.0252
     89  CG1       16.4630   12.6760   17.9690 C.3   131  VAL131      0.0019
     90  CG2       18.4780   14.0750   17.5060 C.3   131  VAL131      0.0019
     91  N         12.1780   11.5490   22.1270 N.3   137  LEU137     -0.1245
     92  CA        11.5300   10.6120   21.2240 C.3   137  LEU137      0.1561
     93  C         10.6890    9.6000   21.9880 C.2   137  LEU137      0.2260
     94  O         10.9350    9.3290   23.1690 O.2   137  LEU137     -0.2867
     95  CB        12.6020    9.8200   20.4740 C.3   137  LEU137      0.0270
     96  CG        13.6000   10.5420   19.5780 C.3   137  LEU137      0.0019
     97  CD1       14.4960    9.4910   18.8980 C.3   137  LEU137      0.0001
     98  CD2       12.9410   11.4220   18.5320 C.3   137  LEU137      0.0001
     99  N          9.2600    5.6290   21.0220 N.3   139  VAL139     -0.1245
    100  CA         9.1540    4.6020   19.9930 C.3   139  VAL139      0.1561
    101  C          8.1490    3.5500   20.4820 C.2   139  VAL139      0.2260
    102  O          8.2750    3.0300   21.5890 O.2   139  VAL139     -0.2867
    103  CB        10.4910    3.9250   19.6860 C.3   139  VAL139      0.0252
    104  CG1       10.2950    2.8420   18.6330 C.3   139  VAL139      0.0019
    105  CG2       11.5290    4.9290   19.2190 C.3   139  VAL139      0.0019
    106  N         18.1310    4.9670   21.1130 N.3   194  LEU194     -0.1231
    107  CA        18.1850    4.3370   19.8120 C.3   194  LEU194      0.1693
    108  C         18.8350    2.9550   19.8660 C.2   194  LEU194      0.2593
    109  O         19.8140    2.8610   20.6320 O.2   194  LEU194     -0.2718
    110  CB        19.2300    5.0540   18.9400 C.3   194  LEU194      0.0284
    111  CG        18.6430    6.2000   18.2200 C.3   194  LEU194      0.0019
    112  CD1       17.8890    7.1720   19.1370 C.3   194  LEU194      0.0001
    113  CD2       19.6760    6.9620   17.3790 C.3   194  LEU194      0.0001
    114  N         18.3760    2.0230   19.0520 N.am  195  THR195     -0.1939
    115  CA        19.0400    0.7200   19.0290 C.3   195  THR195      0.2028
    116  C         20.0670    0.6440   17.8960 C.2   195  THR195      0.2643
    117  O         20.7430   -0.3800   17.7950 O.2   195  THR195     -0.2714
    118  CB        18.0670   -0.4580   18.8900 C.3   195  THR195      0.1808
    119  OG1       17.4450   -0.4110   17.6080 O.3   195  THR195     -0.2208
    120  CG2       16.9930   -0.3810   19.9710 C.3   195  THR195      0.0379
    121  N         20.1480    1.6920   17.0940 N.am  196  THR196     -0.1937
    122  CA        21.1470    1.8070   16.0230 C.3   196  THR196      0.2013
    123  C         22.0520    3.0020   16.3170 C.2   196  THR196      0.2484
    124  O         21.5710    3.9270   16.9720 O.2   196  THR196     -0.2729
    125  CB        20.5170    2.0140   14.6490 C.3   196  THR196      0.1807
    126  OG1       19.6170    3.1380   14.7150 O.3   196  THR196     -0.2208
    127  CG2       19.6650    0.8350   14.2170 C.3   196  THR196      0.0379
    128  N         23.3090    3.0080   15.8750 N.am  197  PRO197     -0.2715
    129  CA        24.0950    4.2500   15.9360 C.3   197  PRO197      0.1521
    130  C         23.2740    5.3940   15.3530 C.2   197  PRO197      0.2440
    131  O         22.5220    5.1940   14.3830 O.2   197  PRO197     -0.2731
    132  CB        25.2990    3.8880   15.0670 C.3   197  PRO197      0.0310
    133  CG        25.4830    2.4160   15.3560 C.3   197  PRO197      0.0237
    134  CD        24.0640    1.8710   15.3190 C.3   197  PRO197      0.0939
    135  N         23.3340    6.5870   15.9100 N.am  198  PRO198     -0.2727
    136  CA        24.2110    6.9520   17.0070 C.3   198  PRO198      0.1402
    137  C         23.8030    6.5480   18.4210 C.2   198  PRO198      0.2269
    138  O         24.4960    6.9570   19.3630 O.2   198  PRO198     -0.2865
    139  CB        24.1940    8.4990   16.9170 C.3   198  PRO198      0.0296
    140  CG        22.8950    8.8720   16.2970 C.3   198  PRO198      0.0237
    141  CD        22.5360    7.7250   15.3940 C.3   198  PRO198      0.0939
    142  N         21.5950    7.3660   20.5020 N.3   200  LEU200     -0.1245
    143  CA        21.3040    8.4420   21.4510 C.3   200  LEU200      0.1561
    144  C         20.2780    8.0180   22.4990 C.2   200  LEU200      0.2260
    145  O         19.2960    7.3300   22.2290 O.2   200  LEU200     -0.2867
    146  CB        20.8220    9.6780   20.6730 C.3   200  LEU200      0.0270
    147  CG        21.7920   10.1500   19.5770 C.3   200  LEU200      0.0019
    148  CD1       21.1970   11.2300   18.6930 C.3   200  LEU200      0.0001
    149  CD2       23.0780   10.6380   20.2240 C.3   200  LEU200      0.0001
    150  N         15.0570    8.2800   24.1610 N.3   203  VAL203     -0.1245
    151  CA        13.8190    7.5590   23.8680 C.3   203  VAL203      0.1561
    152  C         13.0230    7.0320   25.0500 C.2   203  VAL203      0.2260
    153  O         13.5220    6.3500   25.9370 O.2   203  VAL203     -0.2867
    154  CB        14.0750    6.2910   23.0070 C.3   203  VAL203      0.0252
    155  CG1       12.7940    5.5430   22.6580 C.3   203  VAL203      0.0019
    156  CG2       14.8460    6.6950   21.7530 C.3   203  VAL203      0.0019
    157  N         10.6030    4.1890   25.5990 N.3   205  TRP205     -0.1241
    158  CA        10.1330    2.9960   24.8840 C.3   205  TRP205      0.1605
    159  C          8.7760    2.5430   25.3900 C.2   205  TRP205      0.2264
    160  O          8.5440    2.4070   26.5990 O.2   205  TRP205     -0.2867
    161  CB        11.1300    1.8260   25.0610 C.3   205  TRP205      0.0550
    162  CG        12.2830    1.9980   24.1020 C.ar  205  TRP205      0.0003
    163  CD1       13.4990    2.5700   24.2860 C.ar  205  TRP205      0.0946
    164  CD2       12.2390    1.5460   22.7420 C.ar  205  TRP205      0.0152
    165  NE1       14.2300    2.5100   23.1170 N.ar  205  TRP205     -0.2442
    166  CE2       13.4770    1.8800   22.1560 C.ar  205  TRP205      0.0810
    167  CE3       11.2530    0.8890   21.9910 C.ar  205  TRP205      0.0012
    168  CZ2       13.7850    1.5820   20.8200 C.ar  205  TRP205      0.0191
    169  CZ3       11.5720    0.6010   20.6770 C.ar  205  TRP205      0.0001
    170  CH2       12.7970    0.9350   20.1070 C.ar  205  TRP205      0.0015
@<TRIPOS>BOND
     1     1     2    1
     2     2     3    1
     3     2     5    1
     4     3     4    2
     5    22    21    2
     6     5     6    1
     7    21    20    1
     8    19    20    1
     9     9    10    1
    10     6     7    2
    11     6     8   am
    12    20    23    1
    13    23    24    1
    14    10    11    1
    15    10    13    1
    16    11    12    2
    17    24    26   am
    18    24    25    2
    19    13    14    1
    20    15    14   ar
    21    15    17   ar
    22    14    16   ar
    23    17    18   ar
    24    31    28    1
    25    31    32    1
    26    16    18   ar
    27    40    37    1
    28    40    41    1
    29    28    29    1
    30    28    27    1
    31    37    36    1
    32    37    38    1
    33    32    33    1
    34    29    30    2
    35    38    39    2
    36    33    34    2
    37    33    35   am
    38    41    42   ar
    39    41    43   ar
    40    42    44   ar
    41    46    47    1
    42    48    47    1
    43    48    49    2
    44    43    45   ar
    45    47    50    1
    46    44    45   ar
    47    59    58    2
    48    77    78    1
    49    77    74    1
    50    50    51    1
    51    52    51   ar
    52    52    54   ar
    53    80    78   ar
    54    80    82   ar
    55   127   125    1
    56    51    53   ar
    57    78    79   ar
    58    54    55   ar
    59   131   130    2
    60    82    83   ar
    61   125   126    1
    62   125   122    1
    63    53    55   ar
    64    79    81   ar
    65    56    57    1
    66    69    68    2
    67    73    74    1
    68    58    57    1
    69    72    70    1
    70    70    71    1
    71    70    67    1
    72    83    81   ar
    73   132   133    1
    74   132   129    1
    75    66    67    1
    76    74    75    1
    77   134   133    1
    78   134   128    1
    79   130   135   am
    80   130   129    1
    81   141   135    1
    82   141   140    1
    83    57    60    1
    84    60    61    1
    85    75    76    2
    86    67    68    1
    87   128   129    1
    88   128   123   am
    89   135   136    1
    90   122   123    1
    91   122   121    1
    92   140   139    1
    93   123   124    2
    94    62    61   ar
    95    62    64   ar
    96    61    63   ar
    97   139   136    1
    98   136   137    1
    99   121   116   am
   100   113   111    1
   101    64    65   ar
   102    63    65   ar
   103    90    88    1
   104   119   118    1
   105   117   116    2
   106   116   115    1
   107    89    88    1
   108   111   110    1
   109   111   112    1
   110   137   138    2
   111    98    96    1
   112    88    85    1
   113   104   103    1
   114   148   147    1
   115   118   115    1
   116   118   120    1
   117    97    96    1
   118   110   107    1
   119   115   114    1
   120   114   108   am
   121   105   103    1
   122    84    85    1
   123   147   149    1
   124   147   146    1
   125    96    95    1
   126   103   100    1
   127    85    86    1
   128   107   108    1
   129   107   106    1
   130   108   109    2
   131   100   101    1
   132   100    99    1
   133   170   169   ar
   134   170   168   ar
   135    95    92    1
   136   101   102    2
   137   142   143    1
   138    86    87    2
   139   146   143    1
   140   169   167   ar
   141   168   166   ar
   142    92    93    1
   143    92    91    1
   144   143   144    1
   145   156   154    1
   146    93    94    2
   147   167   164   ar
   148   166   164   ar
   149   166   165   ar
   150   145   144    2
   151   155   154    1
   152   164   162   ar
   153   154   151    1
   154   165   163   ar
   155   151   150    1
   156   151   152    1
   157   162   163   ar
   158   162   161    1
   159   158   161    1
   160   158   159    1
   161   158   157    1
   162   152   153    2
   163   159   160    2
