@<TRIPOS>MOLECULE
tmp/1za2A01.pdb
 96 91 0 0 0
SMALL
GASTEIGER

@<TRIPOS>ATOM
      1  N         37.9900   39.0160   22.6590 N.3   131  SER131     -0.1217
      2  CA        36.8130   38.1650   22.5790 C.3   131  SER131      0.1889
      3  C         35.7850   38.7020   21.5910 C.2   131  SER131      0.2288
      4  O         34.6080   38.3520   21.6730 O.2   131  SER131     -0.2866
      5  CB        36.1740   38.0670   23.9620 C.3   131  SER131      0.2089
      6  OG        35.8190   39.3560   24.4260 O.3   131  SER131     -0.2183
      7  N         37.0100   37.2740   14.7160 N.3   134  HIS134     -0.1241
      8  CA        37.9860   36.3300   14.1660 C.3   134  HIS134      0.1621
      9  C         37.3660   35.9090   12.8280 C.2   134  HIS134      0.2264
     10  O         37.1090   34.7240   12.5800 O.2   134  HIS134     -0.2867
     11  CB        38.1480   35.1260   15.0940 C.3   134  HIS134      0.0745
     12  CG        39.2840   34.2190   14.7170 C.ar  134  HIS134      0.0817
     13  ND1       40.1830   34.5230   13.7130 N.ar  134  HIS134     -0.2268
     14  CD2       39.6750   33.0220   15.2220 C.ar  134  HIS134      0.1154
     15  CE1       41.0740   33.5510   13.6180 C.ar  134  HIS134      0.1986
     16  NE2       40.7890   32.6290   14.5210 N.ar  134  HIS134     -0.2212
     17  N         32.3000   25.9780   25.1850 N.3   162  ASP162     -0.1239
     18  CA        32.2730   27.3150   25.7560 C.3   162  ASP162      0.1674
     19  C         31.5630   28.2660   24.7950 C.2   162  ASP162      0.2266
     20  O         32.2000   29.0390   24.0760 O.2   162  ASP162     -0.2867
     21  CB        33.7000   27.7960   26.0130 C.3   162  ASP162      0.1410
     22  CG        33.7450   29.1370   26.7190 C.2   162  ASP162      0.3668
     23  OD1       34.8510   29.7010   26.8570 O.co2 162  ASP162     -0.2456
     24  OD2       32.6710   29.6250   27.1400 O.co2 162  ASP162     -0.2456
     25  N         31.7570   32.3850   25.9310 N.3   165  TYR165     -0.1227
     26  CA        32.9320   33.1970   25.6100 C.3   165  TYR165      0.1736
     27  C         33.5660   32.9470   24.2420 C.2   165  TYR165      0.2596
     28  O         34.3650   33.7500   23.7730 O.2   165  TYR165     -0.2718
     29  CB        34.0050   32.9920   26.6820 C.3   165  TYR165      0.0548
     30  CG        33.5520   33.3160   28.0850 C.ar  165  TYR165     -0.0200
     31  CD1       33.3420   34.6400   28.4900 C.ar  165  TYR165     -0.0009
     32  CD2       33.3290   32.2990   29.0140 C.ar  165  TYR165     -0.0009
     33  CE1       32.9210   34.9400   29.7890 C.ar  165  TYR165      0.0417
     34  CE2       32.9090   32.5850   30.3130 C.ar  165  TYR165      0.0417
     35  CZ        32.7060   33.9050   30.6960 C.ar  165  TYR165      0.1957
     36  OH        32.2860   34.1800   31.9790 O.3   165  TYR165     -0.2866
     37  N         33.2220   31.8380   23.6030 N.am  166  GLY166     -0.1942
     38  CA        33.8110   31.5360   22.3130 C.3   166  GLY166      0.2014
     39  C         33.4760   32.5250   21.2170 C.2   166  GLY166      0.2639
     40  O         32.3170   32.6500   20.8300 O.2   166  GLY166     -0.2714
     41  N         34.4900   33.2120   20.6950 N.am  167  ARG167     -0.1963
     42  CA        34.2710   34.1860   19.6330 C.3   167  ARG167      0.1729
     43  C         34.0620   33.5090   18.2890 C.2   167  ARG167      0.2616
     44  O         33.3180   34.0230   17.4570 O.2   167  ARG167     -0.2715
     45  CB        35.4510   35.1570   19.5250 C.3   167  ARG167      0.0348
     46  CG        36.6970   34.5340   18.9220 C.3   167  ARG167      0.0492
     47  CD        37.9000   35.4630   18.9730 C.3   167  ARG167      0.2205
     48  NE        39.1250   34.7250   18.7010 N.pl3 167  ARG167     -0.0865
     49  CZ        40.3470   35.2280   18.8180 C.cat 167  ARG167      0.5346
     50  NH1       40.5230   36.4880   19.2070 N.pl3 167  ARG167      0.1354
     51  NH2       41.3970   34.4620   18.5510 N.pl3 167  ARG167      0.1354
     52  N         34.7030   32.3650   18.0590 N.am  168  THR168     -0.1951
     53  CA        34.5160   31.7120   16.7710 C.3   168  THR168      0.1897
     54  C         33.0880   31.1980   16.6240 C.2   168  THR168      0.2313
     55  O         32.5070   31.3160   15.5560 O.2   168  THR168     -0.2863
     56  CB        35.5330   30.5600   16.5090 C.3   168  THR168      0.1794
     57  OG1       35.3090   29.4880   17.4230 O.3   168  THR168     -0.2208
     58  CG2       36.9530   31.0620   16.6470 C.3   168  THR168      0.0378
     59  N         36.6430   23.7750   22.4840 N.3   229  ARG229     -0.1245
     60  CA        37.1110   23.2690   23.7590 C.3   229  ARG229      0.1563
     61  C         36.4210   23.9230   24.9550 C.2   229  ARG229      0.2260
     62  O         36.3380   25.1480   25.0610 O.2   229  ARG229     -0.2867
     63  CB        38.6390   23.4150   23.8510 C.3   229  ARG229      0.0307
     64  CG        39.1440   24.6520   24.5470 C.3   229  ARG229      0.0489
     65  CD        40.3190   25.2550   23.8010 C.3   229  ARG229      0.2205
     66  NE        41.4560   24.3450   23.6990 N.pl3 229  ARG229     -0.0865
     67  CZ        42.5580   24.4410   24.4360 C.cat 229  ARG229      0.5346
     68  NH1       42.6750   25.4100   25.3400 N.pl3 229  ARG229      0.1354
     69  NH2       43.5550   23.5840   24.2480 N.pl3 229  ARG229      0.1354
     70  N         36.4110   25.4960   27.8970 N.3   231  GLN231     -0.1245
     71  CA        37.4550   26.1530   28.6630 C.3   231  GLN231      0.1566
     72  C         37.2880   25.7320   30.1200 C.2   231  GLN231      0.2260
     73  O         36.5900   26.3840   30.8950 O.2   231  GLN231     -0.2867
     74  CB        37.3370   27.6660   28.5300 C.3   231  GLN231      0.0367
     75  CG        37.4380   28.1930   27.1050 C.3   231  GLN231      0.0905
     76  CD        38.7410   27.8210   26.4200 C.2   231  GLN231      0.2608
     77  OE1       39.7900   27.6990   27.0620 O.2   231  GLN231     -0.2717
     78  NE2       38.6840   27.6580   25.1030 N.am  231  GLN231     -0.0878
     79  N         37.5970   27.9000   33.1000 N.3   234  ARG234     -0.1245
     80  CA        36.4870   28.8230   33.3060 C.3   234  ARG234      0.1563
     81  C         35.4590   28.2230   34.2590 C.2   234  ARG234      0.2260
     82  O         34.4270   28.8370   34.5460 O.2   234  ARG234     -0.2867
     83  CB        35.8160   29.1610   31.9710 C.3   234  ARG234      0.0307
     84  CG        36.6860   29.9650   31.0270 C.3   234  ARG234      0.0489
     85  CD        35.9510   30.2530   29.7290 C.3   234  ARG234      0.2205
     86  NE        36.8000   30.9000   28.7290 N.pl3 234  ARG234     -0.0865
     87  CZ        37.0710   32.2010   28.6980 C.cat 234  ARG234      0.5346
     88  NH1       36.5550   33.0100   29.6160 N.pl3 234  ARG234      0.1354
     89  NH2       37.8570   32.6910   27.7450 N.pl3 234  ARG234      0.1354
     90  N         37.6880   24.4030   15.4580 N.3   266  PRO266     -0.2116
     91  CA        38.6550   25.4280   15.0420 C.3   266  PRO266      0.1372
     92  C         40.0760   25.1420   15.5410 C.2   266  PRO266      0.2244
     93  O         41.0560   25.6300   14.9800 O.2   266  PRO266     -0.2868
     94  CB        38.0580   26.7150   15.6100 C.3   266  PRO266      0.0268
     95  CG        37.3380   26.2380   16.8500 C.3   266  PRO266      0.0207
     96  CD        36.6970   24.9470   16.4090 C.3   266  PRO266      0.0892
@<TRIPOS>BOND
     1    10     9    2
     2     9     8    1
     3    15    13   ar
     4    15    16   ar
     5    13    12   ar
     6     8     7    1
     7     8    11    1
     8    16    14   ar
     9    12    11    1
    10    12    14   ar
    11    93    92    2
    12    91    90    1
    13    91    92    1
    14    91    94    1
    15    90    96    1
    16    55    54    2
    17    94    95    1
    18    96    95    1
    19    56    58    1
    20    56    53    1
    21    56    57    1
    22    54    53    1
    23    53    52    1
    24    44    43    2
    25    52    43   am
    26    43    42    1
    27    51    49    1
    28    48    49    2
    29    48    47    1
    30    49    50    1
    31    46    47    1
    32    46    45    1
    33    45    42    1
    34    42    41    1
    35    41    39   am
    36    40    39    2
    37    39    38    1
    38     3     4    2
    39     3     2    1
    40    38    37    1
    41    59    60    1
    42     2     1    1
    43     2     5    1
    44    37    27   am
    45    66    65    1
    46    66    67    2
    47    60    63    1
    48    60    61    1
    49    28    27    2
    50    65    64    1
    51    63    64    1
    52     5     6    1
    53    20    19    2
    54    27    26    1
    55    69    67    1
    56    67    68    1
    57    19    18    1
    58    61    62    2
    59    78    76   am
    60    17    18    1
    61    26    25    1
    62    26    29    1
    63    18    21    1
    64    21    22    1
    65    76    77    2
    66    76    75    1
    67    29    30    1
    68    22    23   ar
    69    22    24   ar
    70    75    74    1
    71    89    87    1
    72    70    71    1
    73    30    31   ar
    74    30    32   ar
    75    31    33   ar
    76    74    71    1
    77    71    72    1
    78    87    86    2
    79    87    88    1
    80    86    85    1
    81    32    34   ar
    82    85    84    1
    83    33    35   ar
    84    72    73    2
    85    34    35   ar
    86    35    36    1
    87    84    83    1
    88    83    80    1
    89    79    80    1
    90    80    81    1
    91    81    82    2
