@<TRIPOS>MOLECULE
tmp/1zabB00.pdb
 107 101 0 0 0
SMALL
GASTEIGER

@<TRIPOS>ATOM
      1  N         34.1220   22.8940   66.5330 N.3    25  SER25      -0.1217
      2  CA        35.2070   21.9370   66.3280 C.3    25  SER25       0.1889
      3  C         36.3480   22.5500   65.5230 C.2    25  SER25       0.2288
      4  O         37.5090   22.1720   65.6800 O.2    25  SER25      -0.2866
      5  CB        34.6880   20.7100   65.5760 C.3    25  SER25       0.2089
      6  OG        34.4240   21.0220   64.2120 O.3    25  SER25      -0.2183
      7  N         36.7890   22.0650   62.6350 N.3    27  PHE27      -0.1241
      8  CA        37.1860   20.9410   61.8140 C.3    27  PHE27       0.1605
      9  C         36.1890   20.9120   60.6500 C.2    27  PHE27       0.2264
     10  O         35.1790   20.2000   60.6930 O.2    27  PHE27      -0.2867
     11  CB        37.0890   19.6520   62.6380 C.3    27  PHE27       0.0534
     12  CG        37.6060   18.4320   61.9340 C.ar   27  PHE27      -0.0203
     13  CD1       38.9610   18.1380   61.9270 C.ar   27  PHE27      -0.0042
     14  CD2       36.7310   17.5770   61.2720 C.ar   27  PHE27      -0.0042
     15  CE1       39.4410   17.0060   61.2700 C.ar   27  PHE27      -0.0003
     16  CE2       37.1990   16.4490   60.6130 C.ar   27  PHE27      -0.0003
     17  CZ        38.5590   16.1630   60.6140 C.ar   27  PHE27      -0.0000
     18  N         34.5080   20.0660   57.0330 N.3    29  VAL29      -0.1245
     19  CA        34.4630   18.8940   56.1680 C.3    29  VAL29       0.1561
     20  C         33.5290   19.1100   54.9790 C.2    29  VAL29       0.2260
     21  O         32.4400   19.6600   55.1260 O.2    29  VAL29      -0.2867
     22  CB        33.9630   17.6440   56.9310 C.3    29  VAL29       0.0252
     23  CG1       34.0060   16.4320   56.0150 C.3    29  VAL29       0.0019
     24  CG2       34.8010   17.4130   58.1780 C.3    29  VAL29       0.0019
     25  N         29.6490   20.0350   56.8270 N.3    45  ASN45      -0.1240
     26  CA        29.1450   19.8270   58.1780 C.3    45  ASN45       0.1653
     27  C         28.6190   21.1430   58.7460 C.2    45  ASN45       0.2266
     28  O         29.1750   22.2150   58.4900 O.2    45  ASN45      -0.2867
     29  CB        30.2310   19.2270   59.0900 C.3    45  ASN45       0.1155
     30  CG        31.5120   20.0430   59.1160 C.2    45  ASN45       0.2627
     31  OD1       32.0120   20.4780   58.0760 O.2    45  ASN45      -0.2716
     32  ND2       32.0660   20.2330   60.3100 N.am   45  ASN45      -0.0877
     33  N         27.4790   22.4390   62.4410 N.3    47  GLU47      -0.1245
     34  CA        27.3840   22.1750   63.8660 C.3    47  GLU47       0.1567
     35  C         26.3570   23.0490   64.5630 C.2    47  GLU47       0.2260
     36  O         25.7890   23.9570   63.9570 O.2    47  GLU47      -0.2867
     37  CB        28.7640   22.3380   64.5070 C.3    47  GLU47       0.0388
     38  CG        29.8570   21.6750   63.6740 C.3    47  GLU47       0.1160
     39  CD        31.1980   21.5950   64.3780 C.2    47  GLU47       0.3649
     40  OE1       31.6040   22.5860   65.0160 O.co2  47  GLU47      -0.2457
     41  OE2       31.8570   20.5380   64.2740 O.co2  47  GLU47      -0.2457
     42  N         24.2350   18.8150   65.4040 N.3    54  GLY54      -0.1210
     43  CA        24.9610   19.1100   64.1870 C.3    54  GLY54       0.1956
     44  C         24.7030   18.0230   63.1610 C.2    54  GLY54       0.2612
     45  O         24.0540   17.0210   63.4610 O.2    54  GLY54      -0.2717
     46  N         25.2020   18.2190   61.9470 N.am   55  VAL55      -0.1965
     47  CA        25.0370   17.2410   60.8830 C.3    55  VAL55       0.1727
     48  C         26.3540   17.1610   60.1180 C.2    55  VAL55       0.2616
     49  O         27.1030   18.1420   60.0480 O.2    55  VAL55      -0.2715
     50  CB        23.8830   17.6350   59.9230 C.3    55  VAL55       0.0290
     51  CG1       24.1610   18.9960   59.2890 C.3    55  VAL55       0.0023
     52  CG2       23.7110   16.5720   58.8520 C.3    55  VAL55       0.0023
     53  N         26.6400   15.9880   59.5630 N.am   56  CYS56      -0.1954
     54  CA        27.8780   15.7760   58.8190 C.3    56  CYS56       0.1843
     55  C         27.7400   16.1600   57.3470 C.2    56  CYS56       0.2625
     56  O         26.6230   16.2820   56.8270 O.2    56  CYS56      -0.2714
     57  CB        28.3070   14.3110   58.9310 C.3    56  CYS56       0.0997
     58  SG        28.4680   13.7150   60.6460 S.3    56  CYS56      -0.0797
     59  N         28.8820   16.3420   56.6840 N.am   57  ALA57      -0.1963
     60  CA        28.9140   16.7170   55.2730 C.3    57  ALA57       0.1728
     61  C         28.2160   15.7050   54.3770 C.2    57  ALA57       0.2616
     62  O         27.4170   16.0830   53.5190 O.2    57  ALA57      -0.2715
     63  CB        30.3610   16.9040   54.8070 C.3    57  ALA57       0.0334
     64  N         28.5170   14.4240   54.5750 N.am   58  GLU58      -0.1977
     65  CA        27.9210   13.3730   53.7560 C.3    58  GLU58       0.1602
     66  C         26.4050   13.4370   53.7520 C.2    58  GLU58       0.2287
     67  O         25.7820   13.4410   52.6930 O.2    58  GLU58      -0.2864
     68  CB        28.3550   11.9850   54.2340 C.3    58  GLU58       0.0415
     69  CG        29.8530   11.7750   54.3030 C.3    58  GLU58       0.1163
     70  CD        30.4200   12.1200   55.6670 C.2    58  GLU58       0.3649
     71  OE1       30.9660   11.2080   56.3210 O.co2  58  GLU58      -0.2457
     72  OE2       30.3190   13.2940   56.0870 O.co2  58  GLU58      -0.2457
     73  N         34.7980   12.5590   50.2350 N.3    78  ILE78      -0.1245
     74  CA        34.8480   13.3470   51.4620 C.3    78  ILE78       0.1561
     75  C         36.1990   14.0390   51.5850 C.2    78  ILE78       0.2260
     76  O         37.2440   13.4460   51.2920 O.2    78  ILE78      -0.2867
     77  CB        34.6430   12.4470   52.7060 C.3    78  ILE78       0.0252
     78  CG1       33.5560   11.4030   52.4280 C.3    78  ILE78       0.0019
     79  CG2       34.2420   13.2970   53.9020 C.3    78  ILE78       0.0019
     80  CD1       33.3470   10.4010   53.5600 C.3    78  ILE78       0.0001
     81  N         40.0790   11.0810   55.5860 N.3    87  ILE87      -0.1231
     82  CA        38.8640   11.4010   56.3100 C.3    87  ILE87       0.1692
     83  C         37.8400   10.3200   55.9760 C.2    87  ILE87       0.2593
     84  O         37.5340   10.0830   54.8070 O.2    87  ILE87      -0.2718
     85  CB        38.3510   12.8090   55.9080 C.3    87  ILE87       0.0266
     86  CG1       37.0700   13.1390   56.6790 C.3    87  ILE87       0.0019
     87  CG2       38.1520   12.8860   54.3970 C.3    87  ILE87       0.0020
     88  CD1       37.2660   13.2880   58.1800 C.3    87  ILE87       0.0001
     89  N         37.3410    9.6350   56.9990 N.am   88  SER88      -0.1939
     90  CA        36.3650    8.5830   56.7630 C.3    88  SER88       0.2040
     91  C         35.0280    8.9250   57.3940 C.2    88  SER88       0.2485
     92  O         34.9620    9.5710   58.4340 O.2    88  SER88      -0.2729
     93  CB        36.8660    7.2400   57.3050 C.3    88  SER88       0.2129
     94  OG        36.6350    7.1420   58.6930 O.3    88  SER88      -0.2179
     95  N         33.9380    8.4760   56.7660 N.am   89  PRO89      -0.2715
     96  CA        32.5770    8.7280   57.2490 C.3    89  PRO89       0.1536
     97  C         32.2700    8.1090   58.6160 C.2    89  PRO89       0.2598
     98  O         32.6880    6.9840   58.9040 O.2    89  PRO89      -0.2715
     99  CB        31.7250    8.1250   56.1450 C.3    89  PRO89       0.0310
    100  CG        32.5480    6.9130   55.7520 C.3    89  PRO89       0.0237
    101  CD        33.9290    7.4990   55.6600 C.3    89  PRO89       0.0939
    102  N         31.5330    8.8380   59.4510 N.am   90  CYS90      -0.1968
    103  CA        31.1690    8.3180   60.7650 C.3    90  CYS90       0.1712
    104  C         30.0890    7.2660   60.5310 C.2    90  CYS90       0.2296
    105  O         29.4870    7.2180   59.4540 O.2    90  CYS90      -0.2864
    106  CB        30.6330    9.4310   61.6740 C.3    90  CYS90       0.0983
    107  SG        28.8790    9.8330   61.4390 S.3    90  CYS90      -0.0798
@<TRIPOS>BOND
     1    73    74    1
     2    76    75    2
     3    74    75    1
     4    74    77    1
     5    78    77    1
     6    78    80    1
     7    67    66    2
     8    77    79    1
     9    62    61    2
    10    66    65    1
    11    65    68    1
    12    65    64    1
    13    68    69    1
    14    69    70    1
    15    61    64   am
    16    61    60    1
    17    87    85    1
    18    63    60    1
    19    84    83    2
    20    20    21    2
    21    20    19    1
    22    60    59    1
    23    81    82    1
    24   101   100    1
    25   101    95    1
    26    70    72   ar
    27    70    71   ar
    28   100    99    1
    29    85    82    1
    30    85    86    1
    31    83    82    1
    32    83    89   am
    33    23    22    1
    34    99    96    1
    35    19    22    1
    36    19    18    1
    37    86    88    1
    38    59    55   am
    39    90    89    1
    40    90    93    1
    41    90    91    1
    42    95    96    1
    43    95    91   am
    44    56    55    2
    45    25    26    1
    46    22    24    1
    47    96    97    1
    48    93    94    1
    49    55    54    1
    50    91    92    2
    51    31    30    2
    52    26    27    1
    53    26    29    1
    54    28    27    2
    55    97    98    2
    56    97   102   am
    57    54    57    1
    58    54    53    1
    59    52    50    1
    60    57    58    1
    61    29    30    1
    62    30    32   am
    63    51    50    1
    64   102   103    1
    65   105   104    2
    66    53    48   am
    67    50    47    1
    68    49    48    2
    69    48    47    1
    70   104   103    1
    71    16    17   ar
    72    16    14   ar
    73    17    15   ar
    74     9    10    2
    75     9     8    1
    76   103   106    1
    77    47    46    1
    78    15    13   ar
    79    14    12   ar
    80   107   106    1
    81     8     7    1
    82     8    11    1
    83    13    12   ar
    84    12    11    1
    85    46    44   am
    86    33    34    1
    87    44    45    2
    88    44    43    1
    89    38    39    1
    90    38    37    1
    91    34    37    1
    92    34    35    1
    93    36    35    2
    94    43    42    1
    95     6     5    1
    96    41    39   ar
    97    39    40   ar
    98     3     4    2
    99     3     2    1
   100     5     2    1
   101     2     1    1
