@<TRIPOS>MOLECULE
tmp/1zafA01.pdb
 164 152 0 0 0
SMALL
GASTEIGER

@<TRIPOS>ATOM
      1  N         37.3610   39.8570   41.6720 N.3    33  MET33      -0.1245
      2  CA        37.0930   38.5430   41.1030 C.3    33  MET33       0.1570
      3  C         37.0370   37.4440   42.1530 C.2    33  MET33       0.2261
      4  O         36.1880   36.5600   42.0880 O.2    33  MET33      -0.2867
      5  CB        38.1380   38.1860   40.0500 C.3    33  MET33       0.0387
      6  CG        38.1310   39.1220   38.8660 C.3    33  MET33       0.0595
      7  SD        36.4480   39.5630   38.3880 S.3    33  MET33      -0.1393
      8  CE        35.8800   37.9930   37.7950 C.3    33  MET33       0.0692
      9  N         33.6360   37.7690   43.6660 N.3    36  LEU36      -0.1231
     10  CA        32.5710   37.3160   42.7720 C.3    36  LEU36       0.1693
     11  C         32.5040   35.7870   42.6710 C.2    36  LEU36       0.2592
     12  O         31.4240   35.2000   42.7650 O.2    36  LEU36      -0.2718
     13  CB        32.7580   37.9270   41.3740 C.3    36  LEU36       0.0284
     14  CG        32.4610   39.4250   41.2360 C.3    36  LEU36       0.0019
     15  CD1       32.8210   39.9120   39.8460 C.3    36  LEU36       0.0001
     16  CD2       30.9910   39.6720   41.5070 C.3    36  LEU36       0.0001
     17  N         33.6530   35.1440   42.4800 N.am   37  THR37      -0.1953
     18  CA        33.6880   33.6860   42.3800 C.3    37  THR37       0.1897
     19  C         33.3780   33.0170   43.7300 C.2    37  THR37       0.2313
     20  O         32.7300   31.9740   43.7860 O.2    37  THR37      -0.2863
     21  CB        35.0640   33.1880   41.8420 C.3    37  THR37       0.1794
     22  OG1       36.1300   33.7330   42.6330 O.3    37  THR37      -0.2208
     23  CG2       35.2540   33.6210   40.3900 C.3    37  THR37       0.0378
     24  N         31.4030   34.1390   46.0160 N.3    39  LEU39      -0.1231
     25  CA        29.9560   34.2640   46.1510 C.3    39  LEU39       0.1693
     26  C         29.2320   33.2970   45.2120 C.2    39  LEU39       0.2591
     27  O         28.2790   32.6270   45.6120 O.2    39  LEU39      -0.2718
     28  CB        29.5110   35.6960   45.8200 C.3    39  LEU39       0.0284
     29  CG        27.9920   35.9160   45.7400 C.3    39  LEU39       0.0019
     30  CD1       27.3930   35.7600   47.1250 C.3    39  LEU39       0.0001
     31  CD2       27.6780   37.2980   45.1780 C.3    39  LEU39       0.0001
     32  N         29.6720   33.2360   43.9600 N.am   40  ALA40      -0.1980
     33  CA        29.0340   32.3520   42.9970 C.3    40  ALA40       0.1597
     34  C         29.0330   30.9330   43.5500 C.2    40  ALA40       0.2287
     35  O         28.0190   30.2260   43.4960 O.2    40  ALA40      -0.2864
     36  CB        29.7700   32.3930   41.6730 C.3    40  ALA40       0.0319
     37  N         26.5260   30.4750   46.2870 N.3    43  GLU43      -0.1245
     38  CA        25.1910   30.5040   45.7130 C.3    43  GLU43       0.1567
     39  C         24.8290   29.2190   44.9690 C.2    43  GLU43       0.2260
     40  O         23.6850   28.7750   45.0270 O.2    43  GLU43      -0.2867
     41  CB        25.0260   31.7130   44.7790 C.3    43  GLU43       0.0388
     42  CG        25.0150   33.0650   45.4870 C.3    43  GLU43       0.1160
     43  CD        24.6600   34.2090   44.5530 C.2    43  GLU43       0.3649
     44  OE1       23.4640   34.5550   44.4410 O.co2  43  GLU43      -0.2457
     45  OE2       25.5820   34.7540   43.9100 O.co2  43  GLU43      -0.2457
     46  N         24.6490   30.1050   35.4290 N.3    74  MET74      -0.1245
     47  CA        25.0720   31.4990   35.3750 C.3    74  MET74       0.1570
     48  C         23.8660   32.4120   35.1450 C.2    74  MET74       0.2261
     49  O         23.7730   33.4740   35.7420 O.2    74  MET74      -0.2867
     50  CB        26.1190   31.7170   34.2770 C.3    74  MET74       0.0387
     51  CG        26.6650   33.1350   34.2540 C.3    74  MET74       0.0595
     52  SD        27.3810   33.6360   35.8460 S.3    74  MET74      -0.1393
     53  CE        29.1310   33.2080   35.5450 C.3    74  MET74       0.0692
     54  N         22.0490   32.7300   38.3390 N.3    77  LEU77      -0.1231
     55  CA        22.8100   33.5910   39.2390 C.3    77  LEU77       0.1693
     56  C         22.5750   35.0590   38.8690 C.2    77  LEU77       0.2591
     57  O         22.3320   35.9070   39.7390 O.2    77  LEU77      -0.2718
     58  CB        24.3080   33.2900   39.1550 C.3    77  LEU77       0.0284
     59  CG        24.8720   32.0860   39.9230 C.3    77  LEU77       0.0019
     60  CD1       26.3860   32.1820   39.9200 C.3    77  LEU77       0.0001
     61  CD2       24.3680   32.0740   41.3720 C.3    77  LEU77       0.0001
     62  N         22.6350   35.3560   37.5760 N.am   78  MET78      -0.1979
     63  CA        22.4280   36.7220   37.1230 C.3    78  MET78       0.1605
     64  C         20.9880   37.1980   37.2960 C.2    78  MET78       0.2287
     65  O         20.7550   38.3630   37.5950 O.2    78  MET78      -0.2864
     66  CB        22.8880   36.8570   35.6690 C.3    78  MET78       0.0413
     67  CG        24.4230   36.8380   35.5270 C.3    78  MET78       0.0598
     68  SD        25.0200   36.5660   33.8290 S.3    78  MET78      -0.1393
     69  CE        24.1100   37.6550   33.0320 C.3    78  MET78       0.0692
     70  N         20.8120   38.3290   40.6730 N.3    81  LEU81      -0.1245
     71  CA        21.5210   39.5910   40.8310 C.3    81  LEU81       0.1561
     72  C         20.6370   40.7670   40.4260 C.2    81  LEU81       0.2260
     73  O         20.6360   41.8130   41.0700 O.2    81  LEU81      -0.2867
     74  CB        22.7870   39.5960   39.9600 C.3    81  LEU81       0.0270
     75  CG        23.5100   40.9380   39.8010 C.3    81  LEU81       0.0019
     76  CD1       24.1030   41.3750   41.1340 C.3    81  LEU81       0.0001
     77  CD2       24.6090   40.8090   38.7520 C.3    81  LEU81       0.0001
     78  N         17.8020   41.6240   42.9600 N.3    84  ARG84      -0.1245
     79  CA        18.3380   42.2950   44.1390 C.3    84  ARG84       0.1563
     80  C         18.7710   43.7240   43.8380 C.2    84  ARG84       0.2260
     81  O         18.8480   44.5590   44.7380 O.2    84  ARG84      -0.2867
     82  CB        19.5440   41.5290   44.6960 C.3    84  ARG84       0.0307
     83  CG        19.2270   40.1130   45.1510 C.3    84  ARG84       0.0489
     84  CD        20.3250   39.5240   46.0350 C.3    84  ARG84       0.2205
     85  NE        21.5870   39.2640   45.3380 N.pl3  84  ARG84      -0.0865
     86  CZ        21.7860   38.2870   44.4550 C.cat  84  ARG84       0.5346
     87  NH1       20.8030   37.4560   44.1310 N.pl3  84  ARG84       0.1354
     88  NH2       22.9890   38.1220   43.9130 N.pl3  84  ARG84       0.1354
     89  N         25.4340   42.3490   44.3770 N.3    94  PHE94      -0.1241
     90  CA        25.8290   40.9480   44.4190 C.3    94  PHE94       0.1605
     91  C         25.5480   40.3980   45.8090 C.2    94  PHE94       0.2264
     92  O         25.2070   39.2360   45.9730 O.2    94  PHE94      -0.2867
     93  CB        27.3140   40.7930   44.0850 C.3    94  PHE94       0.0534
     94  CG        27.6300   41.0240   42.6360 C.ar   94  PHE94      -0.0203
     95  CD1       27.8920   42.3050   42.1620 C.ar   94  PHE94      -0.0042
     96  CD2       27.6200   39.9620   41.7330 C.ar   94  PHE94      -0.0042
     97  CE1       28.1400   42.5290   40.8120 C.ar   94  PHE94      -0.0003
     98  CE2       27.8650   40.1760   40.3760 C.ar   94  PHE94      -0.0003
     99  CZ        28.1250   41.4640   39.9160 C.ar   94  PHE94      -0.0000
    100  N         35.1090   43.1380   32.0950 N.3   111  ILE111     -0.1245
    101  CA        33.9920   43.1350   33.0320 C.3   111  ILE111      0.1561
    102  C         32.9910   44.2670   32.8110 C.2   111  ILE111      0.2260
    103  O         31.7840   44.0940   33.0280 O.2   111  ILE111     -0.2867
    104  CB        34.4960   43.1800   34.4950 C.3   111  ILE111      0.0252
    105  CG1       34.8510   41.7630   34.9440 C.3   111  ILE111      0.0019
    106  CG2       33.4440   43.7970   35.4170 C.3   111  ILE111      0.0019
    107  CD1       35.2130   41.6550   36.4060 C.3   111  ILE111      0.0001
    108  N         30.2530   43.2440   30.7100 N.3   114  ILE114     -0.1231
    109  CA        29.2930   42.3930   31.4120 C.3   114  ILE114      0.1692
    110  C         28.3830   43.2000   32.3400 C.2   114  ILE114      0.2592
    111  O         27.1680   42.9980   32.3590 O.2   114  ILE114     -0.2718
    112  CB        29.9960   41.3290   32.2860 C.3   114  ILE114      0.0266
    113  CG1       31.0110   40.5400   31.4630 C.3   114  ILE114      0.0019
    114  CG2       28.9610   40.3900   32.8840 C.3   114  ILE114      0.0020
    115  CD1       30.4180   39.8230   30.3110 C.3   114  ILE114      0.0001
    116  N         28.9850   44.0980   33.1160 N.am  115  PHE115     -0.1976
    117  CA        28.2480   44.9220   34.0640 C.3   115  PHE115      0.1639
    118  C         27.2210   45.7970   33.3680 C.2   115  PHE115      0.2290
    119  O         26.0860   45.9240   33.8240 O.2   115  PHE115     -0.2864
    120  CB        29.2250   45.7760   34.8780 C.3   115  PHE115      0.0560
    121  CG        29.8930   45.0300   36.0080 C.ar  115  PHE115     -0.0200
    122  CD1       29.9040   43.6360   36.0390 C.ar  115  PHE115     -0.0042
    123  CD2       30.5150   45.7230   37.0400 C.ar  115  PHE115     -0.0042
    124  CE1       30.5260   42.9380   37.0870 C.ar  115  PHE115     -0.0003
    125  CE2       31.1400   45.0420   38.0920 C.ar  115  PHE115     -0.0003
    126  CZ        31.1450   43.6460   38.1150 C.ar  115  PHE115     -0.0000
    127  N         24.3140   43.7180   32.3970 N.3   118  LEU118     -0.1245
    128  CA        23.5250   43.4480   33.5890 C.3   118  LEU118      0.1561
    129  C         22.7530   44.6610   34.0910 C.2   118  LEU118      0.2260
    130  O         21.5800   44.5470   34.4690 O.2   118  LEU118     -0.2867
    131  CB        24.4350   42.9180   34.7020 C.3   118  LEU118      0.0270
    132  CG        25.0740   41.5530   34.4460 C.3   118  LEU118      0.0019
    133  CD1       26.0740   41.2280   35.5430 C.3   118  LEU118      0.0001
    134  CD2       23.9920   40.5090   34.3840 C.3   118  LEU118      0.0001
    135  N         29.6360   36.0760   30.6830 N.3   200  GLY200     -0.1225
    136  CA        30.2270   35.8940   31.9930 C.3   200  GLY200      0.1811
    137  C         30.9870   34.5860   32.0570 C.2   200  GLY200      0.2280
    138  O         32.0460   34.5040   32.6640 O.2   200  GLY200     -0.2866
    139  N         34.2750   34.9130   30.1620 N.3   203  HIS203     -0.1226
    140  CA        35.2260   35.7000   30.9330 C.3   203  HIS203      0.1752
    141  C         35.7410   34.8920   32.1100 C.2   203  HIS203      0.2595
    142  O         36.9170   34.9670   32.4490 O.2   203  HIS203     -0.2718
    143  CB        34.5730   36.9840   31.4450 C.3   203  HIS203      0.0759
    144  CG        35.5140   37.8820   32.1900 C.ar  203  HIS203      0.0818
    145  ND1       35.9290   37.6230   33.4790 N.ar  203  HIS203     -0.2268
    146  CD2       36.1420   39.0200   31.8150 C.ar  203  HIS203      0.1154
    147  CE1       36.7730   38.5640   33.8650 C.ar  203  HIS203      0.1986
    148  NE2       36.9200   39.4230   32.8740 N.ar  203  HIS203     -0.2212
    149  N         34.8520   34.1170   32.7230 N.am  204  LEU204     -0.1980
    150  CA        35.2110   33.2980   33.8700 C.3   204  LEU204      0.1596
    151  C         36.1600   32.1840   33.4680 C.2   204  LEU204      0.2287
    152  O         37.1270   31.9030   34.1770 O.2   204  LEU204     -0.2864
    153  CB        33.9590   32.7030   34.5200 C.3   204  LEU204      0.0297
    154  CG        34.1890   31.7810   35.7260 C.3   204  LEU204      0.0022
    155  CD1       35.0890   32.4710   36.7490 C.3   204  LEU204      0.0001
    156  CD2       32.8460   31.4210   36.3580 C.3   204  LEU204      0.0001
    157  N         39.5630   33.4250   33.0070 N.3   207  MET207     -0.1245
    158  CA        40.1190   33.6610   34.3330 C.3   207  MET207      0.1570
    159  C         40.6040   32.3680   34.9770 C.2   207  MET207      0.2261
    160  O         41.6360   32.3560   35.6390 O.2   207  MET207     -0.2867
    161  CB        39.0730   34.3340   35.2140 C.3   207  MET207      0.0387
    162  CG        38.7460   35.7450   34.7620 C.3   207  MET207      0.0595
    163  SD        39.9820   36.9570   35.3100 S.3   207  MET207     -0.1393
    164  CE        40.8630   37.3190   33.7610 C.3   207  MET207      0.0692
@<TRIPOS>BOND
     1   139   140    1
     2   115   113    1
     3   135   136    1
     4   108   109    1
     5   140   143    1
     6   140   141    1
     7   109   112    1
     8   109   110    1
     9   143   144    1
    10   113   112    1
    11   146   144   ar
    12   146   148   ar
    13   136   137    1
    14   137   138    2
    15   100   101    1
    16   141   142    2
    17   141   149   am
    18   144   145   ar
    19   112   114    1
    20   110   111    2
    21   110   116   am
    22   127   128    1
    23   149   150    1
    24   102   103    2
    25   102   101    1
    26   148   147   ar
    27   157   158    1
    28    69    68    1
    29   101   104    1
    30   116   117    1
    31   118   119    2
    32   118   117    1
    33   151   150    1
    34   151   152    2
    35   145   147   ar
    36   128   129    1
    37   128   131    1
    38   164   163    1
    39    68    67    1
    40   150   153    1
    41   117   120    1
    42   129   130    2
    43    51    50    1
    44    51    52    1
    45    50    47    1
    46   158   159    1
    47   158   161    1
    48   134   132    1
    49   132   131    1
    50   132   133    1
    51   104   105    1
    52   104   106    1
    53   153   154    1
    54   162   161    1
    55   162   163    1
    56   120   121    1
    57   105   107    1
    58   159   160    2
    59    48    47    1
    60    48    49    2
    61    47    46    1
    62    67    66    1
    63    53    52    1
    64    66    63    1
    65   154   156    1
    66   154   155    1
    67   121   122   ar
    68   121   123   ar
    69   122   124   ar
    70   123   125   ar
    71   124   126   ar
    72    63    64    1
    73    63    62    1
    74    64    65    2
    75    62    56   am
    76     8     7    1
    77   125   126   ar
    78    54    55    1
    79     7     6    1
    80    77    75    1
    81     6     5    1
    82    56    55    1
    83    56    57    2
    84    58    55    1
    85    58    59    1
    86    75    74    1
    87    75    76    1
    88    15    14    1
    89    99    98   ar
    90    99    97   ar
    91    60    59    1
    92    59    61    1
    93    74    71    1
    94     5     2    1
    95    98    96   ar
    96    23    21    1
    97    72    71    1
    98    72    73    2
    99    70    71    1
   100    97    95   ar
   101     2     1    1
   102     2     3    1
   103    14    13    1
   104    14    16    1
   105    13    10    1
   106    36    33    1
   107    96    94   ar
   108    21    18    1
   109    21    22    1
   110     4     3    2
   111    95    94   ar
   112    18    17    1
   113    18    19    1
   114    17    11   am
   115    94    93    1
   116    11    12    2
   117    11    10    1
   118    10     9    1
   119    78    79    1
   120    33    34    1
   121    33    32    1
   122    35    34    2
   123    19    20    2
   124    80    79    1
   125    80    81    2
   126    45    43   ar
   127    88    86    1
   128    32    26   am
   129    93    90    1
   130    87    86    1
   131    79    82    1
   132    89    90    1
   133    90    91    1
   134    44    43   ar
   135    86    85    2
   136    43    42    1
   137    82    83    1
   138    41    42    1
   139    41    38    1
   140    39    40    2
   141    39    38    1
   142    83    84    1
   143    31    29    1
   144    26    27    2
   145    26    25    1
   146    85    84    1
   147    38    37    1
   148    29    28    1
   149    29    30    1
   150    91    92    2
   151    28    25    1
   152    24    25    1
