@<TRIPOS>MOLECULE
tmp/1zafA00.pdb
 151 142 0 0 0
SMALL
GASTEIGER

@<TRIPOS>ATOM
      1  N         25.6490   26.2370   45.6540 N.3    45  VAL45      -0.1245
      2  CA        25.2540   25.2200   46.6160 C.3    45  VAL45       0.1561
      3  C         23.7850   25.4100   46.9510 C.2    45  VAL45       0.2260
      4  O         23.0260   24.4500   46.9880 O.2    45  VAL45      -0.2867
      5  CB        26.0550   25.3250   47.9240 C.3    45  VAL45       0.0252
      6  CG1       25.6670   24.1790   48.8450 C.3    45  VAL45       0.0019
      7  CG2       27.5490   25.3100   47.6240 C.3    45  VAL45       0.0019
      8  N         21.3110   24.4170   44.1220 N.3    48  ILE48      -0.1245
      9  CA        20.9620   23.0020   44.0220 C.3    48  ILE48       0.1561
     10  C         19.7660   22.6810   44.9090 C.2    48  ILE48       0.2260
     11  O         18.8470   21.9780   44.4780 O.2    48  ILE48      -0.2867
     12  CB        22.1260   22.0810   44.4320 C.3    48  ILE48       0.0252
     13  CG1       23.3800   22.4330   43.6370 C.3    48  ILE48       0.0019
     14  CG2       21.7400   20.6230   44.2060 C.3    48  ILE48       0.0019
     15  CD1       23.1230   22.7240   42.1870 C.3    48  ILE48       0.0001
     16  N         15.7780   21.4350   43.7170 N.3    52  LYS52      -0.1245
     17  CA        15.1350   20.2610   44.3070 C.3    52  LYS52       0.1561
     18  C         13.8120   20.5830   44.9970 C.2    52  LYS52       0.2260
     19  O         12.9700   19.7030   45.1720 O.2    52  LYS52      -0.2867
     20  CB        16.0830   19.6060   45.3160 C.3    52  LYS52       0.0271
     21  CG        17.3740   19.1110   44.7030 C.3    52  LYS52       0.0035
     22  CD        18.4260   18.8880   45.7660 C.3    52  LYS52       0.0206
     23  CE        18.0890   17.6970   46.6260 C.3    52  LYS52       0.1093
     24  NZ        19.1200   17.5270   47.6800 N.3    52  LYS52      -0.1314
     25  N         10.9360   18.4930   40.0960 N.3    57  PHE57      -0.1227
     26  CA        12.3240   18.5300   39.6320 C.3    57  PHE57       0.1736
     27  C         13.1130   17.2610   39.9620 C.2    57  PHE57       0.2595
     28  O         13.8140   16.7150   39.1120 O.2    57  PHE57      -0.2718
     29  CB        13.0690   19.7280   40.2140 C.3    57  PHE57       0.0547
     30  CG        14.4610   19.8700   39.6820 C.ar   57  PHE57      -0.0202
     31  CD1       14.6810   20.3960   38.4090 C.ar   57  PHE57      -0.0042
     32  CD2       15.5520   19.4260   40.4270 C.ar   57  PHE57      -0.0042
     33  CE1       15.9630   20.4770   37.8790 C.ar   57  PHE57      -0.0003
     34  CE2       16.8460   19.4980   39.9100 C.ar   57  PHE57      -0.0003
     35  CZ        17.0550   20.0260   38.6290 C.ar   57  PHE57      -0.0000
     36  N         13.0060   16.8020   41.2030 N.am   58  VAL58      -0.1980
     37  CA        13.7190   15.6070   41.6160 C.3    58  VAL58       0.1595
     38  C         13.1400   14.3470   40.9650 C.2    58  VAL58       0.2287
     39  O         13.7300   13.2740   41.0460 O.2    58  VAL58      -0.2864
     40  CB        13.7020   15.4700   43.1460 C.3    58  VAL58       0.0276
     41  CG1       14.4140   16.6540   43.7570 C.3    58  VAL58       0.0022
     42  CG2       12.2700   15.4010   43.6540 C.3    58  VAL58       0.0022
     43  N         18.1550   11.6430   36.7590 N.3    62  LEU62      -0.1231
     44  CA        19.3410   12.2920   37.3040 C.3    62  LEU62       0.1693
     45  C         20.0930   12.9660   36.1630 C.2    62  LEU62       0.2592
     46  O         20.6910   14.0310   36.3330 O.2    62  LEU62      -0.2718
     47  CB        20.2370   11.2610   38.0000 C.3    62  LEU62       0.0284
     48  CG        21.4290   11.7460   38.8330 C.3    62  LEU62       0.0019
     49  CD1       22.4870   12.3510   37.9240 C.3    62  LEU62       0.0001
     50  CD2       20.9590   12.7700   39.8720 C.3    62  LEU62       0.0001
     51  N         20.0590   12.3460   34.9920 N.am   63  PHE63      -0.1976
     52  CA        20.7430   12.9140   33.8440 C.3    63  PHE63       0.1639
     53  C         20.1620   14.2760   33.4870 C.2    63  PHE63       0.2290
     54  O         20.9000   15.2030   33.1750 O.2    63  PHE63      -0.2864
     55  CB        20.6410   11.9860   32.6340 C.3    63  PHE63       0.0560
     56  CG        21.3600   12.5060   31.4200 C.ar   63  PHE63      -0.0200
     57  CD1       22.7490   12.6150   31.4130 C.ar   63  PHE63      -0.0042
     58  CD2       20.6500   12.9260   30.3020 C.ar   63  PHE63      -0.0042
     59  CE1       23.4210   13.1360   30.3130 C.ar   63  PHE63      -0.0003
     60  CE2       21.3140   13.4500   29.1910 C.ar   63  PHE63      -0.0003
     61  CZ        22.7000   13.5550   29.1980 C.ar   63  PHE63      -0.0000
     62  N         18.3760   16.4100   35.5150 N.3    65  GLN65      -0.1231
     63  CA        18.6050   17.3730   36.5840 C.3    65  GLN65       0.1698
     64  C         19.9920   18.0010   36.4460 C.2    65  GLN65       0.2592
     65  O         20.1640   19.2060   36.6290 O.2    65  GLN65      -0.2718
     66  CB        18.4940   16.6880   37.9450 C.3    65  GLN65       0.0381
     67  CG        17.1260   16.1220   38.2470 C.3    65  GLN65       0.0905
     68  CD        17.0950   15.4070   39.5730 C.2    65  GLN65       0.2608
     69  OE1       17.4410   15.9790   40.6100 O.2    65  GLN65      -0.2717
     70  NE2       16.6800   14.1440   39.5540 N.am   65  GLN65      -0.0878
     71  N         20.9740   17.1710   36.1140 N.am   66  VAL66      -0.1966
     72  CA        22.3430   17.6270   35.9600 C.3    66  VAL66       0.1727
     73  C         22.5060   18.5280   34.7480 C.2    66  VAL66       0.2616
     74  O         23.0560   19.6160   34.8630 O.2    66  VAL66      -0.2715
     75  CB        23.3200   16.4310   35.8520 C.3    66  VAL66       0.0290
     76  CG1       24.7090   16.9070   35.4060 C.3    66  VAL66       0.0023
     77  CG2       23.4240   15.7380   37.1930 C.3    66  VAL66       0.0023
     78  N         22.0210   18.0930   33.5910 N.am   67  ARG67      -0.1977
     79  CA        22.1620   18.9020   32.3940 C.3    67  ARG67       0.1597
     80  C         21.4190   20.2330   32.4760 C.2    67  ARG67       0.2287
     81  O         21.8800   21.2230   31.9210 O.2    67  ARG67      -0.2864
     82  CB        21.7120   18.1290   31.1500 C.3    67  ARG67       0.0334
     83  CG        20.2660   17.6910   31.1530 C.3    67  ARG67       0.0492
     84  CD        19.8840   17.0410   29.8120 C.3    67  ARG67       0.2205
     85  NE        19.2920   17.9900   28.8680 N.pl3  67  ARG67      -0.0865
     86  CZ        17.9880   18.2530   28.7730 C.cat  67  ARG67       0.5346
     87  NH1       17.1160   17.6390   29.5680 N.pl3  67  ARG67       0.1354
     88  NH2       17.5530   19.1280   27.8710 N.pl3  67  ARG67       0.1354
     89  N         20.8250   22.0820   35.2490 N.3    69  LEU69      -0.1231
     90  CA        21.5510   22.9810   36.1240 C.3    69  LEU69       0.1693
     91  C         22.9020   23.3930   35.5310 C.2    69  LEU69       0.2591
     92  O         23.3340   24.5350   35.7060 O.2    69  LEU69      -0.2718
     93  CB        21.7380   22.3380   37.4970 C.3    69  LEU69       0.0284
     94  CG        20.5220   22.2770   38.4340 C.3    69  LEU69       0.0019
     95  CD1       20.8250   21.3500   39.5930 C.3    69  LEU69       0.0001
     96  CD2       20.1790   23.6650   38.9440 C.3    69  LEU69       0.0001
     97  N         23.5590   22.4840   34.8130 N.am   70  GLU70      -0.1979
     98  CA        24.8580   22.8020   34.2310 C.3    70  GLU70       0.1602
     99  C         24.7680   23.8810   33.1600 C.2    70  GLU70       0.2287
    100  O         25.6970   24.6580   32.9720 O.2    70  GLU70      -0.2864
    101  CB        25.5230   21.5440   33.6470 C.3    70  GLU70       0.0415
    102  CG        25.7930   20.4600   34.6840 C.3    70  GLU70       0.1163
    103  CD        26.7570   19.3850   34.2070 C.2    70  GLU70       0.3649
    104  OE1       26.6660   18.9740   33.0410 O.co2  70  GLU70      -0.2457
    105  OE2       27.6040   18.9310   35.0070 O.co2  70  GLU70      -0.2457
    106  N         35.9220   24.3770   44.0040 N.3   217  ASP217     -0.1225
    107  CA        35.4220   23.0570   43.6460 C.3   217  ASP217      0.1805
    108  C         34.0790   22.9990   42.8970 C.2   217  ASP217      0.2597
    109  O         34.0420   22.5950   41.7330 O.2   217  ASP217     -0.2718
    110  CB        35.3760   22.1790   44.9050 C.3   217  ASP217      0.1424
    111  CG        36.7560   21.6280   45.2940 C.2   217  ASP217      0.3668
    112  OD1       37.7790   22.2700   44.9650 O.co2 217  ASP217     -0.2456
    113  OD2       36.8240   20.5560   45.9380 O.co2 217  ASP217     -0.2456
    114  N         32.9830   23.3990   43.5370 N.am  218  LEU218     -0.1979
    115  CA        31.6820   23.3310   42.8720 C.3   218  LEU218      0.1596
    116  C         31.6070   24.2300   41.6380 C.2   218  LEU218      0.2287
    117  O         31.1150   23.8150   40.5900 O.2   218  LEU218     -0.2864
    118  CB        30.5540   23.7030   43.8370 C.3   218  LEU218      0.0297
    119  CG        29.2330   22.9190   43.7350 C.3   218  LEU218      0.0022
    120  CD1       28.0900   23.8420   44.1070 C.3   218  LEU218      0.0001
    121  CD2       29.0070   22.3650   42.3370 C.3   218  LEU218      0.0001
    122  N         33.5740   22.8770   38.7110 N.3   221  GLU221     -0.1231
    123  CA        32.8460   21.7810   38.1020 C.3   221  GLU221      0.1699
    124  C         31.7230   22.2730   37.1880 C.2   221  GLU221      0.2592
    125  O         31.5600   21.7850   36.0700 O.2   221  GLU221     -0.2718
    126  CB        32.2830   20.8930   39.1970 C.3   221  GLU221      0.0402
    127  CG        31.5780   19.6670   38.6960 C.3   221  GLU221      0.1161
    128  CD        31.1650   18.7550   39.8340 C.2   221  GLU221      0.3649
    129  OE1       32.0710   18.2890   40.5730 O.co2 221  GLU221     -0.2457
    130  OE2       29.9430   18.5150   39.9880 O.co2 221  GLU221     -0.2457
    131  N         30.9510   23.2410   37.6680 N.am  222  MET222     -0.1979
    132  CA        29.8530   23.7980   36.8890 C.3   222  MET222      0.1605
    133  C         30.4080   24.4740   35.6450 C.2   222  MET222      0.2287
    134  O         29.8120   24.4250   34.5690 O.2   222  MET222     -0.2864
    135  CB        29.0720   24.8210   37.7200 C.3   222  MET222      0.0413
    136  CG        28.4090   24.2490   38.9590 C.3   222  MET222      0.0598
    137  SD        27.2830   22.9180   38.5340 S.3   222  MET222     -0.1393
    138  CE        25.7560   23.8150   38.2620 C.3   222  MET222      0.0692
    139  N         32.0610   21.5970   33.0630 N.3   225  ALA225     -0.1245
    140  CA        31.0480   20.7580   32.4350 C.3   225  ALA225      0.1562
    141  C         30.2830   21.5000   31.3370 C.2   225  ALA225      0.2260
    142  O         29.9930   20.9720   30.2730 O.2   225  ALA225     -0.2867
    143  CB        30.0790   20.2870   33.5200 C.3   225  ALA225      0.0290
    144  N         32.0970   21.7980   27.7880 N.3   228  LEU228     -0.1245
    145  CA        32.1990   20.5060   27.1220 C.3   228  LEU228      0.1561
    146  C         30.8300   20.0040   26.6610 C.2   228  LEU228      0.2260
    147  O         30.0610   20.7180   26.0290 O.2   228  LEU228     -0.2867
    148  CB        32.8240   19.5100   28.1000 C.3   228  LEU228      0.0270
    149  CG        34.2550   19.8860   28.4920 C.3   228  LEU228      0.0019
    150  CD1       34.8430   18.9260   29.5280 C.3   228  LEU228      0.0001
    151  CD2       35.2200   19.8720   27.3060 C.3   228  LEU228      0.0001
@<TRIPOS>BOND
     1   147   146    2
     2   146   145    1
     3   145   144    1
     4   145   148    1
     5   151   149    1
     6    88    86    1
     7   148   149    1
     8   149   150    1
     9    86    85    2
    10    86    87    1
    11    85    84    1
    12    60    61   ar
    13    60    58   ar
    14    61    59   ar
    15    84    83    1
    16   142   141    2
    17    58    56   ar
    18    59    57   ar
    19    82    83    1
    20    82    79    1
    21   141   140    1
    22    57    56   ar
    23    56    55    1
    24    81    80    2
    25    79    80    1
    26    79    78    1
    27   140   139    1
    28   140   143    1
    29    55    52    1
    30   100    99    2
    31   104   103   ar
    32    99    98    1
    33    54    53    2
    34    53    52    1
    35    78    73   am
    36   101    98    1
    37   101   102    1
    38    52    51    1
    39   103   102    1
    40   103   105   ar
    41    98    97    1
    42   134   133    2
    43    73    74    2
    44    73    72    1
    45    97    91   am
    46    51    45   am
    47    89    90    1
    48    76    75    1
    49    62    63    1
    50    91    92    2
    51    91    90    1
    52   133   132    1
    53    75    72    1
    54    75    77    1
    55    72    71    1
    56   125   124    2
    57    71    64   am
    58    90    93    1
    59    45    46    2
    60    45    44    1
    61    64    63    1
    62    64    65    2
    63    63    66    1
    64    43    44    1
    65   132   131    1
    66   132   135    1
    67   124   131   am
    68   124   123    1
    69    44    47    1
    70    93    94    1
    71   135   136    1
    72    33    31   ar
    73    33    35   ar
    74    49    48    1
    75    66    67    1
    76    47    48    1
    77   123   122    1
    78   123   126    1
    79    67    68    1
    80   138   137    1
    81    31    30   ar
    82    94    96    1
    83    94    95    1
    84   137   136    1
    85    35    34   ar
    86   127   126    1
    87   127   128    1
    88    48    50    1
    89    28    27    2
    90    70    68   am
    91    68    69    2
    92    26    27    1
    93    26    25    1
    94    26    29    1
    95    30    29    1
    96    30    32   ar
    97   128   130   ar
    98   128   129   ar
    99    34    32   ar
   100    27    36   am
   101   117   116    2
   102    38    39    2
   103    38    37    1
   104    36    37    1
   105    37    40    1
   106   116   115    1
   107   109   108    2
   108    15    13    1
   109   121   119    1
   110   115   114    1
   111   115   118    1
   112   108   114   am
   113   108   107    1
   114    40    42    1
   115    40    41    1
   116    13    12    1
   117   107   106    1
   118   107   110    1
   119    16    17    1
   120   119   118    1
   121   119   120    1
   122     9     8    1
   123     9    12    1
   124     9    10    1
   125    14    12    1
   126    17    18    1
   127    17    20    1
   128    11    10    2
   129    21    20    1
   130    21    22    1
   131   110   111    1
   132   112   111   ar
   133    18    19    2
   134   111   113   ar
   135     1     2    1
   136    22    23    1
   137     2     3    1
   138     2     5    1
   139    23    24    1
   140     3     4    2
   141     7     5    1
   142     5     6    1
