@<TRIPOS>MOLECULE
tmp/1zafB00.pdb
 140 132 0 0 0
SMALL
GASTEIGER

@<TRIPOS>ATOM
      1  N         23.1970   40.7450    2.7830 N.3    45  VAL45      -0.1245
      2  CA        22.8700   41.9080    1.9700 C.3    45  VAL45       0.1561
      3  C         21.3520   42.1190    1.9820 C.2    45  VAL45       0.2260
      4  O         20.8760   43.2370    2.2090 O.2    45  VAL45      -0.2867
      5  CB        23.3560   41.7420    0.5150 C.3    45  VAL45       0.0252
      6  CG1       22.9290   42.9560   -0.3250 C.3    45  VAL45       0.0019
      7  CG2       24.8690   41.5900    0.4910 C.3    45  VAL45       0.0019
      8  N         19.7600   43.4710    5.2670 N.3    48  ILE48      -0.1231
      9  CA        19.8690   44.9120    5.4640 C.3    48  ILE48       0.1692
     10  C         18.6670   45.5920    4.8330 C.2    48  ILE48       0.2592
     11  O         18.0560   46.4740    5.4290 O.2    48  ILE48      -0.2718
     12  CB        21.1480   45.4830    4.8080 C.3    48  ILE48       0.0266
     13  CG1       22.3760   44.6760    5.2400 C.3    48  ILE48       0.0019
     14  CG2       21.3050   46.9430    5.1710 C.3    48  ILE48       0.0020
     15  CD1       22.5140   44.5200    6.7250 C.3    48  ILE48       0.0001
     16  N         18.3240   45.1730    3.6210 N.am   49  SER49      -0.1952
     17  CA        17.1860   45.7470    2.9150 C.3    49  SER49       0.1924
     18  C         15.8950   45.4160    3.6340 C.2    49  SER49       0.2314
     19  O         14.9920   46.2370    3.7080 O.2    49  SER49      -0.2863
     20  CB        17.1270   45.2170    1.4840 C.3    49  SER49       0.2116
     21  OG        18.2310   45.7070    0.7510 O.3    49  SER49      -0.2180
     22  N         15.3090   47.6770    6.7690 N.3    52  LYS52      -0.1245
     23  CA        14.8690   49.0280    6.4280 C.3    52  LYS52       0.1561
     24  C         13.3710   49.1030    6.1190 C.2    52  LYS52       0.2260
     25  O         12.7850   50.1880    6.1210 O.2    52  LYS52      -0.2867
     26  CB        15.6690   49.5590    5.2320 C.3    52  LYS52       0.0271
     27  CG        17.1730   49.6250    5.4780 C.3    52  LYS52       0.0035
     28  CD        17.8990   50.4200    4.3940 C.3    52  LYS52       0.0206
     29  CE        17.4550   51.8890    4.3720 C.3    52  LYS52       0.1093
     30  NZ        18.1830   52.6680    3.3280 N.3    52  LYS52      -0.1314
     31  N         12.2100   51.4240   11.6780 N.3    57  PHE57      -0.1241
     32  CA        13.6230   51.0930   11.7770 C.3    57  PHE57       0.1605
     33  C         14.5030   52.2240   11.2420 C.2    57  PHE57       0.2264
     34  O         15.4870   52.6130   11.8750 O.2    57  PHE57      -0.2867
     35  CB        13.9450   49.8100   11.0140 C.3    57  PHE57       0.0534
     36  CG        15.3720   49.3580   11.1800 C.ar   57  PHE57      -0.0203
     37  CD1       15.7800   48.7140   12.3430 C.ar   57  PHE57      -0.0042
     38  CD2       16.3140   49.6010   10.1830 C.ar   57  PHE57      -0.0042
     39  CE1       17.1010   48.3130   12.5150 C.ar   57  PHE57      -0.0003
     40  CE2       17.6380   49.2040   10.3430 C.ar   57  PHE57      -0.0003
     41  CZ        18.0330   48.5550   11.5170 C.ar   57  PHE57      -0.0000
     42  N         21.3850   55.9390   13.0590 N.3    62  LEU62      -0.1245
     43  CA        22.2290   55.0300   12.3100 C.3    62  LEU62       0.1561
     44  C         22.9920   54.0880   13.2170 C.2    62  LEU62       0.2260
     45  O         23.0580   52.8900   12.9630 O.2    62  LEU62      -0.2867
     46  CB        23.2330   55.7840   11.4430 C.3    62  LEU62       0.0270
     47  CG        24.1190   54.7440   10.7490 C.3    62  LEU62       0.0019
     48  CD1       23.3790   54.1950    9.5420 C.3    62  LEU62       0.0001
     49  CD2       25.4390   55.3370   10.3590 C.3    62  LEU62       0.0001
     50  N         20.8200   51.3520   14.4570 N.3    65  GLN65      -0.1231
     51  CA        20.5310   50.4170   13.3790 C.3    65  GLN65       0.1698
     52  C         21.7080   49.4600   13.2470 C.2    65  GLN65       0.2592
     53  O         21.5210   48.2580   13.1190 O.2    65  GLN65      -0.2718
     54  CB        20.3080   51.1660   12.0640 C.3    65  GLN65       0.0381
     55  CG        19.1050   52.1070   12.0780 C.3    65  GLN65       0.0905
     56  CD        19.0080   52.9730   10.8220 C.2    65  GLN65       0.2608
     57  OE1       18.9390   52.4620    9.7070 O.2    65  GLN65      -0.2717
     58  NE2       18.9950   54.2880   11.0060 N.am   65  GLN65      -0.0878
     59  N         22.9210   50.0010   13.2920 N.am   66  VAL66      -0.1980
     60  CA        24.1210   49.1850   13.1820 C.3    66  VAL66       0.1595
     61  C         24.2590   48.2180   14.3540 C.2    66  VAL66       0.2287
     62  O         24.4680   47.0230   14.1560 O.2    66  VAL66      -0.2864
     63  CB        25.4000   50.0500   13.1350 C.3    66  VAL66       0.0276
     64  CG1       26.6140   49.1590   13.2160 C.3    66  VAL66       0.0022
     65  CG2       25.4420   50.8680   11.8530 C.3    66  VAL66       0.0022
     66  N         21.7800   45.3820   14.1310 N.3    69  LEU69      -0.1231
     67  CA        22.1080   44.4040   13.1020 C.3    69  LEU69       0.1693
     68  C         23.3500   43.5730   13.4300 C.2    69  LEU69       0.2591
     69  O         23.3700   42.3760   13.1660 O.2    69  LEU69      -0.2718
     70  CB        22.2270   45.0980   11.7300 C.3    69  LEU69       0.0284
     71  CG        20.8580   45.5660   11.1960 C.3    69  LEU69       0.0019
     72  CD1       20.9850   46.4000    9.9330 C.3    69  LEU69       0.0001
     73  CD2       20.0140   44.3510   10.9270 C.3    69  LEU69       0.0001
     74  N         24.3660   44.1960   14.0220 N.am   70  GLU70      -0.1979
     75  CA        25.6020   43.4900   14.4030 C.3    70  GLU70       0.1602
     76  C         25.3190   42.4840   15.5180 C.2    70  GLU70       0.2287
     77  O         26.0140   41.4720   15.6650 O.2    70  GLU70      -0.2864
     78  CB        26.6470   44.4520   14.9610 C.3    70  GLU70       0.0415
     79  CG        27.0760   45.5930   14.0890 C.3    70  GLU70       0.1163
     80  CD        28.1260   46.4490   14.7850 C.2    70  GLU70       0.3649
     81  OE1       27.8960   46.8600   15.9440 O.co2  70  GLU70      -0.2457
     82  OE2       29.1800   46.7090   14.1740 O.co2  70  GLU70      -0.2457
     83  N         35.1610   40.9830    4.1170 N.3   217  ASP217     -0.1225
     84  CA        34.0730   41.9090    3.8700 C.3   217  ASP217      0.1805
     85  C         32.8650   42.0350    4.8100 C.2   217  ASP217      0.2597
     86  O         32.9920   42.2710    6.0040 O.2   217  ASP217     -0.2718
     87  CB        33.6970   42.3160    2.4540 C.3   217  ASP217      0.1424
     88  CG        34.9590   42.4830    1.6200 C.2   217  ASP217      0.3668
     89  OD1       35.7500   43.3670    1.9500 O.co2 217  ASP217     -0.2456
     90  OD2       35.1380   41.7350    0.6630 O.co2 217  ASP217     -0.2456
     91  N         31.6620   42.0390    4.2110 N.am  218  LEU218     -0.1979
     92  CA        30.4930   42.2240    5.0500 C.3   218  LEU218      0.1596
     93  C         30.2860   41.1490    6.1450 C.2   218  LEU218      0.2287
     94  O         29.8260   41.4230    7.2220 O.2   218  LEU218     -0.2864
     95  CB        29.2840   42.1680    4.1000 C.3   218  LEU218      0.0297
     96  CG        28.1330   43.1580    4.4180 C.3   218  LEU218      0.0022
     97  CD1       26.7610   42.4870    4.3320 C.3   218  LEU218      0.0001
     98  CD2       28.2060   43.7970    5.8000 C.3   218  LEU218      0.0001
     99  N         32.8070   42.0260    8.8700 N.3   221  GLU221     -0.1231
    100  CA        32.3890   43.1940    9.6450 C.3   221  GLU221      0.1699
    101  C         31.3400   42.7960   10.6750 C.2   221  GLU221      0.2592
    102  O         31.4100   43.2040   11.8340 O.2   221  GLU221     -0.2718
    103  CB        31.7870   44.2710    8.7400 C.3   221  GLU221      0.0402
    104  CG        32.7840   45.1490    8.0320 C.3   221  GLU221      0.1161
    105  CD        32.1100   46.2930    7.3070 C.2   221  GLU221      0.3649
    106  OE1       31.2980   47.0090    7.9420 O.co2 221  GLU221     -0.2457
    107  OE2       32.3950   46.4810    6.1050 O.co2 221  GLU221     -0.2457
    108  N         30.3560   42.0180   10.2320 N.am  222  MET222     -0.1979
    109  CA        29.2910   41.5530   11.1070 C.3   222  MET222      0.1605
    110  C         29.8870   40.6970   12.2090 C.2   222  MET222      0.2287
    111  O         29.5870   40.8890   13.3860 O.2   222  MET222     -0.2864
    112  CB        28.2760   40.7270   10.3220 C.3   222  MET222      0.0413
    113  CG        27.6100   41.4790    9.1970 C.3   222  MET222      0.0598
    114  SD        26.9510   43.0350    9.7730 S.3   222  MET222     -0.1393
    115  CE        25.4700   42.4930   10.6210 C.3   222  MET222      0.0692
    116  N         32.2260   45.3320   15.0530 N.3   226  HIS226     -0.1226
    117  CA        32.7790   46.6550   15.5980 C.3   226  HIS226      0.1752
    118  C         33.0050   47.8690   14.6940 C.2   226  HIS226      0.2596
    119  O         33.9030   48.6740   14.9020 O.2   226  HIS226     -0.2718
    120  CB        34.0430   46.3470   16.4020 C.3   226  HIS226      0.0759
    121  CG        35.2250   46.2250   15.4750 C.ar  226  HIS226      0.0818
    122  ND1       35.6230   45.0440   14.9380 N.ar  226  HIS226     -0.2268
    123  CD2       36.2220   47.1760   15.2270 C.ar  226  HIS226      0.1154
    124  CE1       36.8370   45.2760   14.4020 C.ar  226  HIS226      0.1986
    125  NE2       37.2220   46.5440   14.5620 N.ar  226  HIS226     -0.2212
    126  N         32.1000   47.9620   13.7040 N.am  227  VAL227     -0.1966
    127  CA        32.2470   49.0500   12.7580 C.3   227  VAL227      0.1727
    128  C         31.8300   50.2490   13.6210 C.2   227  VAL227      0.2616
    129  O         32.0310   51.4360   13.3660 O.2   227  VAL227     -0.2715
    130  CB        31.1810   49.0290   11.5160 C.3   227  VAL227      0.0290
    131  CG1       31.4160   47.7610   10.7130 C.3   227  VAL227      0.0023
    132  CG2       29.7950   49.0270   12.0900 C.3   227  VAL227      0.0023
    133  N         31.2620   49.8040   14.7430 N.am  228  LEU228     -0.1977
    134  CA        30.8100   50.6320   15.8570 C.3   228  LEU228      0.1596
    135  C         29.9390   49.7530   16.7630 C.2   228  LEU228      0.2287
    136  O         29.7900   48.5470   16.4450 O.2   228  LEU228     -0.2864
    137  CB        30.0100   51.8430   15.3640 C.3   228  LEU228      0.0297
    138  CG        28.5910   51.6310   14.8350 C.3   228  LEU228      0.0022
    139  CD1       27.5830   51.6900   15.9790 C.3   228  LEU228      0.0001
    140  CD2       28.2900   52.7120   13.8110 C.3   228  LEU228      0.0001
@<TRIPOS>BOND
     1     6     5    1
     2     7     5    1
     3     5     2    1
     4    90    88   ar
     5    21    20    1
     6    20    17    1
     7    88    89   ar
     8    88    87    1
     9     2     3    1
    10     2     1    1
    11     3     4    2
    12    87    84    1
    13    17    16    1
    14    17    18    1
    15    30    29    1
    16    16    10   am
    17    18    19    2
    18    84    83    1
    19    84    85    1
    20    95    96    1
    21    95    92    1
    22    91    85   am
    23    91    92    1
    24    97    96    1
    25    29    28    1
    26    28    27    1
    27    96    98    1
    28    12    14    1
    29    12    13    1
    30    12     9    1
    31    85    86    2
    32    10    11    2
    33    10     9    1
    34    92    93    1
    35    26    27    1
    36    26    23    1
    37    13    15    1
    38     8     9    1
    39   107   105   ar
    40    24    25    2
    41    24    23    1
    42    93    94    2
    43    23    22    1
    44   105   106   ar
    45   105   104    1
    46   104   103    1
    47   103   100    1
    48    99   100    1
    49   113   114    1
    50   113   112    1
    51    48    47    1
    52   100   101    1
    53    57    56    2
    54   114   115    1
    55    72    71    1
    56    38    40   ar
    57    38    36   ar
    58   108   101   am
    59   108   109    1
    60   112   109    1
    61    40    41   ar
    62    49    47    1
    63   101   102    2
    64   131   130    1
    65    47    46    1
    66    56    58   am
    67    56    55    1
    68    73    71    1
    69    35    36    1
    70    35    32    1
    71   109   110    1
    72    36    37   ar
    73    71    70    1
    74    33    32    1
    75    33    34    2
    76    46    43    1
    77   130   132    1
    78   130   127    1
    79    41    39   ar
    80    31    32    1
    81    70    67    1
    82    65    63    1
    83    54    55    1
    84    54    51    1
    85   110   111    2
    86    43    42    1
    87    43    44    1
    88    37    39   ar
    89   127   128    1
    90   127   126    1
    91    45    44    2
    92    67    68    1
    93    67    66    1
    94    53    52    2
    95    63    60    1
    96    63    64    1
    97    69    68    2
    98    60    59    1
    99    60    61    1
   100    52    59   am
   101    52    51    1
   102   129   128    2
   103    51    50    1
   104    68    74   am
   105   128   133   am
   106   126   118   am
   107   140   138    1
   108    74    75    1
   109    79    80    1
   110    79    78    1
   111    62    61    2
   112    82    80   ar
   113   124   125   ar
   114   124   122   ar
   115    75    78    1
   116    75    76    1
   117   125   123   ar
   118   118   119    2
   119   118   117    1
   120   133   134    1
   121    80    81   ar
   122   138   137    1
   123   138   139    1
   124   122   121   ar
   125   116   117    1
   126   123   121   ar
   127   137   134    1
   128   121   120    1
   129    76    77    2
   130   117   120    1
   131   134   135    1
   132   136   135    2
