@<TRIPOS>MOLECULE
tmp/1zagA00.pdb
 91 83 0 0 0
SMALL
GASTEIGER

@<TRIPOS>ATOM
      1  N         35.0850   88.6460  143.2110 N.3   184  SER184     -0.1217
      2  CA        35.2850   87.9140  144.4490 C.3   184  SER184      0.1889
      3  C         34.4930   88.8130  145.3730 C.2   184  SER184      0.2288
      4  O         34.5420   90.0310  145.2120 O.2   184  SER184     -0.2866
      5  CB        36.7580   87.9080  144.8380 C.3   184  SER184      0.2089
      6  OG        37.5470   87.2820  143.8330 O.3   184  SER184     -0.2183
      7  N         33.3870   89.9740  149.3930 N.3   186  VAL186     -0.1245
      8  CA        33.7650   89.9090  150.7850 C.3   186  VAL186      0.1561
      9  C         32.8380   90.7530  151.6240 C.2   186  VAL186      0.2260
     10  O         32.5460   91.9110  151.2840 O.2   186  VAL186     -0.2867
     11  CB        35.2010   90.4280  150.9900 C.3   186  VAL186      0.0252
     12  CG1       35.5560   90.3890  152.4540 C.3   186  VAL186      0.0019
     13  CG2       36.1750   89.5800  150.2060 C.3   186  VAL186      0.0019
     14  N         32.1100   92.5580  155.2520 N.3   188  THR188     -0.1218
     15  CA        32.8330   93.1630  156.3660 C.3   188  THR188      0.1862
     16  C         31.8770   93.9370  157.2640 C.2   188  THR188      0.2287
     17  O         30.7480   94.2340  156.8630 O.2   188  THR188     -0.2866
     18  CB        33.9140   94.1270  155.8240 C.3   188  THR188      0.1770
     19  OG1       35.1720   93.4510  155.8060 O.3   188  THR188     -0.2211
     20  CG2       34.0120   95.3920  156.6570 C.3   188  THR188      0.0375
     21  N         29.2480   95.9110  155.1880 N.3   200  LYS200     -0.1245
     22  CA        29.7850   96.3010  153.9030 C.3   200  LYS200      0.1561
     23  C         30.0500   95.0960  153.0260 C.2   200  LYS200      0.2260
     24  O         30.6480   94.1090  153.4560 O.2   200  LYS200     -0.2867
     25  CB        31.0860   97.0820  154.1110 C.3   200  LYS200      0.0271
     26  CG        31.8540   97.4130  152.8410 C.3   200  LYS200      0.0035
     27  CD        33.1720   98.0830  153.1740 C.3   200  LYS200      0.0206
     28  CE        33.9560   98.4520  151.9280 C.3   200  LYS200      0.1093
     29  NZ        35.2050   99.1990  152.2590 N.3   200  LYS200     -0.1314
     30  N         31.7480   93.8650  149.4080 N.3   202  LEU202     -0.1245
     31  CA        32.6720   94.2760  148.3620 C.3   202  LEU202      0.1561
     32  C         32.8690   93.2480  147.2740 C.2   202  LEU202      0.2260
     33  O         33.2360   92.1140  147.5440 O.2   202  LEU202     -0.2867
     34  CB        34.0380   94.5960  148.9610 C.3   202  LEU202      0.0270
     35  CG        35.1550   94.8460  147.9400 C.3   202  LEU202      0.0019
     36  CD1       34.9360   96.1670  147.2240 C.3   202  LEU202      0.0001
     37  CD2       36.4750   94.8670  148.6550 C.3   202  LEU202      0.0001
     38  N         34.9990   92.4840  143.8380 N.3   204  TYR204     -0.1227
     39  CA        36.2270   92.9840  143.2420 C.3   204  TYR204      0.1736
     40  C         36.9120   92.0820  142.2250 C.2   204  TYR204      0.2595
     41  O         36.5360   90.9300  142.0330 O.2   204  TYR204     -0.2718
     42  CB        37.2200   93.3500  144.3360 C.3   204  TYR204      0.0548
     43  CG        37.6030   92.1990  145.2170 C.ar  204  TYR204     -0.0200
     44  CD1       36.7740   91.7800  146.2540 C.ar  204  TYR204     -0.0009
     45  CD2       38.7890   91.5070  145.0000 C.ar  204  TYR204     -0.0009
     46  CE1       37.1230   90.6930  147.0530 C.ar  204  TYR204      0.0417
     47  CE2       39.1450   90.4210  145.7880 C.ar  204  TYR204      0.0417
     48  CZ        38.3150   90.0180  146.8070 C.ar  204  TYR204      0.1957
     49  OH        38.6860   88.9250  147.5590 O.3   204  TYR204     -0.2866
     50  N         37.9370   92.6380  141.5890 N.am  205  ASP205     -0.1974
     51  CA        38.7040   91.9490  140.5610 C.3   205  ASP205      0.1709
     52  C         37.8310   91.5120  139.4030 C.2   205  ASP205      0.2293
     53  O         38.1670   90.5650  138.6900 O.2   205  ASP205     -0.2864
     54  CB        39.4170   90.7210  141.1220 C.3   205  ASP205      0.1436
     55  CG        40.7130   91.0640  141.8070 C.2   205  ASP205      0.3671
     56  OD1       41.3520   92.0650  141.4150 O.co2 205  ASP205     -0.2456
     57  OD2       41.0980   90.3130  142.7270 O.co2 205  ASP205     -0.2456
     58  N         40.2790  100.1880  138.2250 N.3   232  HIS232     -0.1241
     59  CA        41.7150  100.2260  138.3360 C.3   232  HIS232      0.1621
     60  C         42.1940   99.9590  136.9240 C.2   232  HIS232      0.2264
     61  O         42.2720   98.8110  136.4890 O.2   232  HIS232     -0.2867
     62  CB        42.1760   99.1540  139.3130 C.3   232  HIS232      0.0745
     63  CG        41.7730   99.4290  140.7300 C.ar  232  HIS232      0.0817
     64  ND1       42.2450  100.5120  141.4420 N.ar  232  HIS232     -0.2268
     65  CD2       40.9340   98.7720  141.5640 C.ar  232  HIS232      0.1154
     66  CE1       41.7150  100.5090  142.6530 C.ar  232  HIS232      0.1986
     67  NE2       40.9150   99.4630  142.7520 N.ar  232  HIS232     -0.2212
     68  N         45.1420   97.8580  135.7820 N.3   235  ASN235     -0.1240
     69  CA        44.7310   96.5030  136.0870 C.3   235  ASN235      0.1653
     70  C         43.6560   95.9650  135.1510 C.2   235  ASN235      0.2266
     71  O         43.7330   94.8350  134.6840 O.2   235  ASN235     -0.2867
     72  CB        44.2370   96.5040  137.5310 C.3   235  ASN235      0.1155
     73  CG        44.0510   95.1450  138.0710 C.2   235  ASN235      0.2627
     74  OD1       43.2680   94.3760  137.5240 O.2   235  ASN235     -0.2716
     75  ND2       44.7660   94.8400  139.1520 N.am  235  ASN235     -0.0877
     76  N         40.5060   96.0020  136.1910 N.3   237  THR237     -0.1218
     77  CA        39.4330   95.4860  137.0280 C.3   237  THR237      0.1862
     78  C         38.6420   96.5420  137.7770 C.2   237  THR237      0.2287
     79  O         39.0930   97.6820  137.9400 O.2   237  THR237     -0.2866
     80  CB        39.9580   94.4710  138.0500 C.3   237  THR237      0.1770
     81  OG1       40.8720   95.1110  138.9590 O.3   237  THR237     -0.2211
     82  CG2       40.6470   93.3420  137.3300 C.3   237  THR237      0.0375
     83  N         35.8240   97.4090  141.2250 N.3   239  GLN239     -0.1245
     84  CA        35.5170   97.1360  142.6210 C.3   239  GLN239      0.1566
     85  C         34.2740   97.9400  142.9670 C.2   239  GLN239      0.2260
     86  O         34.2210   99.1390  142.7200 O.2   239  GLN239     -0.2867
     87  CB        36.6720   97.5430  143.5170 C.3   239  GLN239      0.0367
     88  CG        37.7330   96.4820  143.5990 C.3   239  GLN239      0.0905
     89  CD        38.9470   96.9420  144.3580 C.2   239  GLN239      0.2608
     90  OE1       38.8410   97.7010  145.3190 O.2   239  GLN239     -0.2717
     91  NE2       40.1140   96.4770  143.9370 N.am  239  GLN239     -0.0878
@<TRIPOS>BOND
     1    71    70    2
     2    70    69    1
     3    68    69    1
     4    69    72    1
     5    76    77    1
     6    61    60    2
     7    60    59    1
     8    77    78    1
     9    77    80    1
    10    82    80    1
    11    74    73    2
    12    72    73    1
    13    78    79    2
    14    80    81    1
    15    73    75   am
    16    58    59    1
    17    59    62    1
    18    53    52    2
    19    62    63    1
    20    52    51    1
    21    51    54    1
    22    51    50    1
    23    63    64   ar
    24    63    65   ar
    25    54    55    1
    26    83    84    1
    27    56    55   ar
    28    64    66   ar
    29    65    67   ar
    30    50    40   am
    31    55    57   ar
    32    41    40    2
    33    40    39    1
    34    84    85    1
    35    84    87    1
    36    66    67   ar
    37    86    85    2
    38     1     2    1
    39    39    38    1
    40    39    42    1
    41    87    88    1
    42    88    89    1
    43     6     5    1
    44    91    89   am
    45    42    43    1
    46    89    90    2
    47     2     5    1
    48     2     3    1
    49    45    43   ar
    50    45    47   ar
    51     4     3    2
    52    43    44   ar
    53    47    48   ar
    54    44    46   ar
    55    48    46   ar
    56    48    49    1
    57    36    35    1
    58    32    33    2
    59    32    31    1
    60    35    37    1
    61    35    34    1
    62    31    34    1
    63    31    30    1
    64     7     8    1
    65    13    11    1
    66     8    11    1
    67     8     9    1
    68    11    12    1
    69    10     9    2
    70    28    29    1
    71    28    27    1
    72    26    27    1
    73    26    25    1
    74    23    24    2
    75    23    22    1
    76    22    25    1
    77    22    21    1
    78    14    15    1
    79    19    18    1
    80    18    15    1
    81    18    20    1
    82    15    16    1
    83    17    16    2
