@<TRIPOS>MOLECULE
tmp/1zajB00.pdb
 153 141 0 0 0
SMALL
GASTEIGER

@<TRIPOS>ATOM
      1  N        -37.1580  -13.2650   53.8530 N.3    31  ALA31      -0.1245
      2  CA       -35.7060  -13.2390   54.0010 C.3    31  ALA31       0.1562
      3  C        -35.3580  -12.3580   55.1950 C.2    31  ALA31       0.2260
      4  O        -35.2780  -11.1350   55.0760 O.2    31  ALA31      -0.2867
      5  CB       -35.0530  -12.6960   52.7350 C.3    31  ALA31       0.0290
      6  N        -32.5610  -12.9500   57.0270 N.3    33  ASP33      -0.1225
      7  CA       -31.1950  -13.4130   57.2660 C.3    33  ASP33       0.1805
      8  C        -30.1100  -12.3390   57.3470 C.2    33  ASP33       0.2598
      9  O        -28.9460  -12.6170   57.0610 O.2    33  ASP33      -0.2718
     10  CB       -30.8100  -14.4190   56.1810 C.3    33  ASP33       0.1424
     11  CG       -30.7550  -13.7890   54.8010 C.2    33  ASP33       0.3668
     12  OD1      -31.7500  -13.1460   54.4010 O.co2  33  ASP33      -0.2456
     13  OD2      -29.7190  -13.9340   54.1140 O.co2  33  ASP33      -0.2456
     14  N        -30.4730  -11.1250   57.7380 N.am   34  GLU34      -0.1965
     15  CA       -29.4780  -10.0650   57.8450 C.3    34  GLU34       0.1733
     16  C        -28.4350  -10.4320   58.9000 C.2    34  GLU34       0.2617
     17  O        -28.7830  -10.8310   60.0140 O.2    34  GLU34      -0.2715
     18  CB       -30.1440   -8.7360   58.2130 C.3    34  GLU34       0.0429
     19  CG       -31.1670   -8.2570   57.1960 C.3    34  GLU34       0.1163
     20  CD       -32.5660   -8.8000   57.4680 C.2    34  GLU34       0.3649
     21  OE1      -32.6910   -9.7900   58.2180 O.co2  34  GLU34      -0.2457
     22  OE2      -33.5380   -8.2370   56.9240 O.co2  34  GLU34      -0.2457
     23  N        -27.1580  -10.2980   58.5460 N.am   35  SER35      -0.1950
     24  CA       -26.0740  -10.6170   59.4730 C.3    35  SER35       0.1924
     25  C        -25.9850   -9.5550   60.5620 C.2    35  SER35       0.2314
     26  O        -26.6220   -8.5070   60.4670 O.2    35  SER35      -0.2863
     27  CB       -24.7390  -10.7250   58.7250 C.3    35  SER35       0.2116
     28  OG       -24.4060   -9.5100   58.0820 O.3    35  SER35      -0.2180
     29  N        -25.3890   -6.0330   59.3770 N.3    38  SER38      -0.1217
     30  CA       -26.4570   -5.4660   58.5600 C.3    38  SER38       0.1889
     31  C        -27.7160   -5.1460   59.3600 C.2    38  SER38       0.2288
     32  O        -28.3310   -4.0960   59.1700 O.2    38  SER38      -0.2866
     33  CB       -26.7990   -6.4200   57.4170 C.3    38  SER38       0.2089
     34  OG       -25.6490   -6.6770   56.6350 O.3    38  SER38      -0.2183
     35  N        -28.8020  -18.7780   55.6320 N.3   107  LYS107     -0.1245
     36  CA       -27.8660  -18.0600   54.7670 C.3   107  LYS107      0.1561
     37  C        -26.4810  -18.6060   55.1070 C.2   107  LYS107      0.2260
     38  O        -26.1080  -18.6710   56.2770 O.2   107  LYS107     -0.2867
     39  CB       -27.9300  -16.5550   55.0460 C.3   107  LYS107      0.0271
     40  CG       -26.8050  -15.7420   54.4230 C.3   107  LYS107      0.0035
     41  CD       -25.9790  -15.0620   55.5140 C.3   107  LYS107      0.0206
     42  CE       -25.8910  -13.5670   55.2930 C.3   107  LYS107      0.1093
     43  NZ       -27.2280  -12.9560   55.0670 N.3   107  LYS107     -0.1314
     44  N        -23.4070  -17.7680   53.0020 N.3   109  ASP109     -0.1239
     45  CA       -22.2630  -17.0500   52.4430 C.3   109  ASP109      0.1674
     46  C        -21.6230  -16.1910   53.5300 C.2   109  ASP109      0.2266
     47  O        -22.2300  -15.9450   54.5740 O.2   109  ASP109     -0.2867
     48  CB       -22.6770  -16.1850   51.2380 C.3   109  ASP109      0.1410
     49  CG       -23.5050  -14.9760   51.6270 C.2   109  ASP109      0.3668
     50  OD1      -22.9360  -14.0230   52.2050 O.co2 109  ASP109     -0.2456
     51  OD2      -24.7290  -14.9740   51.3540 O.co2 109  ASP109     -0.2456
     52  N        -20.2870  -12.9890   52.9620 N.3   111  GLY111     -0.1225
     53  CA       -20.1070  -11.6580   52.4230 C.3   111  GLY111      0.1811
     54  C        -19.2760  -11.5540   51.1670 C.2   111  GLY111      0.2280
     55  O        -18.5820  -12.4960   50.7740 O.2   111  GLY111     -0.2866
     56  N        -29.1840  -20.0410   51.3800 N.3   146  LYS146     -0.1245
     57  CA       -29.1220  -18.8790   50.5170 C.3   146  LYS146      0.1561
     58  C        -27.6830  -18.3710   50.4410 C.2   146  LYS146      0.2260
     59  O        -26.9320  -18.4270   51.4180 O.2   146  LYS146     -0.2867
     60  CB       -30.0420  -17.7820   51.0490 C.3   146  LYS146      0.0271
     61  CG       -30.4620  -16.7770   49.9880 C.3   146  LYS146      0.0035
     62  CD       -30.3660  -15.3580   50.5180 C.3   146  LYS146      0.0206
     63  CE       -28.9210  -14.9890   50.8270 C.3   146  LYS146      0.1093
     64  NZ       -28.8280  -13.6340   51.4440 N.3   146  LYS146     -0.1314
     65  N        -25.5820  -15.0470   48.4380 N.3   148  ARG148     -0.1245
     66  CA       -25.7310  -13.8660   47.6120 C.3   148  ARG148      0.1563
     67  C        -24.4770  -13.3280   46.9450 C.2   148  ARG148      0.2260
     68  O        -23.5050  -12.9660   47.6110 O.2   148  ARG148     -0.2867
     69  CB       -26.3650  -12.7490   48.4400 C.3   148  ARG148      0.0307
     70  CG       -26.4990  -11.4320   47.7110 C.3   148  ARG148      0.0489
     71  CD       -27.1660  -10.4130   48.5990 C.3   148  ARG148      0.2205
     72  NE       -27.3280   -9.1210   47.9450 N.pl3 148  ARG148     -0.0865
     73  CZ       -26.7200   -8.0080   48.3410 C.cat 148  ARG148      0.5346
     74  NH1      -25.9080   -8.0350   49.3900 N.pl3 148  ARG148      0.1354
     75  NH2      -26.9260   -6.8690   47.6920 N.pl3 148  ARG148      0.1354
     76  N        -28.5930  -16.8410   44.4020 N.3   187  GLU187     -0.1245
     77  CA       -28.9120  -15.4240   44.2910 C.3   187  GLU187      0.1567
     78  C        -27.8400  -14.5670   43.6350 C.2   187  GLU187      0.2260
     79  O        -26.9070  -14.1090   44.2980 O.2   187  GLU187     -0.2867
     80  CB       -29.2540  -14.8220   45.6630 C.3   187  GLU187      0.0388
     81  CG       -29.4250  -13.2950   45.6080 C.3   187  GLU187      0.1160
     82  CD       -29.8690  -12.6740   46.9230 C.2   187  GLU187      0.3649
     83  OE1      -29.7160  -13.3130   47.9830 O.co2 187  GLU187     -0.2457
     84  OE2      -30.3640  -11.5280   46.8910 O.co2 187  GLU187     -0.2457
     85  N        -27.6040  -11.3410   42.4630 N.3   189  GLU189     -0.1245
     86  CA       -28.2470  -10.0330   42.4030 C.3   189  GLU189      0.1567
     87  C        -27.5030   -8.9630   41.6180 C.2   189  GLU189      0.2260
     88  O        -26.3370   -8.6580   41.8830 O.2   189  GLU189     -0.2867
     89  CB       -28.5380   -9.4750   43.8100 C.3   189  GLU189      0.0388
     90  CG       -28.8550   -7.9640   43.7720 C.3   189  GLU189      0.1160
     91  CD       -29.4090   -7.3930   45.0710 C.2   189  GLU189      0.3649
     92  OE1      -29.1570   -7.9590   46.1570 O.co2 189  GLU189     -0.2457
     93  OE2      -30.0940   -6.3510   44.9960 O.co2 189  GLU189     -0.2457
     94  N        -33.0020  -16.8580   42.7600 N.3   229  LYS229     -0.1245
     95  CA       -33.4000  -15.6240   43.4290 C.3   229  LYS229      0.1561
     96  C        -32.7100  -14.4800   42.6980 C.2   229  LYS229      0.2260
     97  O        -31.6210  -14.0410   43.0710 O.2   229  LYS229     -0.2867
     98  CB       -32.9790  -15.6550   44.9020 C.3   229  LYS229      0.0271
     99  CG       -33.2900  -14.3810   45.6700 C.3   229  LYS229      0.0035
    100  CD       -33.2060  -14.6220   47.1750 C.3   229  LYS229      0.0206
    101  CE       -33.6150  -13.3830   47.9560 C.3   229  LYS229      0.1093
    102  NZ       -33.7140  -13.6540   49.4300 N.3   229  LYS229     -0.1314
    103  N        -35.9420  -10.9950   44.7170 N.3   270  LEU270     -0.1231
    104  CA       -35.4620  -10.1890   45.8260 C.3   270  LEU270      0.1693
    105  C        -36.1500   -8.8360   45.5720 C.2   270  LEU270      0.2593
    106  O        -36.4790   -8.5240   44.4220 O.2   270  LEU270     -0.2718
    107  CB       -33.9320  -10.0580   45.7430 C.3   270  LEU270      0.0284
    108  CG       -33.3300   -9.5490   44.4220 C.3   270  LEU270      0.0019
    109  CD1      -33.1960   -8.0260   44.4430 C.3   270  LEU270      0.0001
    110  CD2      -31.9550  -10.1800   44.2120 C.3   270  LEU270      0.0001
    111  N        -36.3910   -8.0450   46.6160 N.am  271  SER271     -0.1938
    112  CA       -37.0530   -6.7510   46.4230 C.3   271  SER271      0.2055
    113  C        -36.0840   -5.6440   45.9900 C.2   271  SER271      0.2643
    114  O        -36.5000   -4.6330   45.4260 O.2   271  SER271     -0.2714
    115  CB       -37.8300   -6.3370   47.6870 C.3   271  SER271      0.2130
    116  OG       -37.0060   -6.2250   48.8380 O.3   271  SER271     -0.2179
    117  N        -34.7980   -5.8510   46.2660 N.am  272  GLY272     -0.1954
    118  CA       -33.7430   -4.9220   45.8770 C.3   272  GLY272      0.1869
    119  C        -33.8340   -3.4260   46.1370 C.2   272  GLY272      0.2309
    120  O        -33.1940   -2.6420   45.4310 O.2   272  GLY272     -0.2863
    121  N        -39.0100  -13.4940   47.7300 N.3   300  SER300     -0.1202
    122  CA       -38.0420  -13.8420   48.7660 C.3   300  SER300      0.2020
    123  C        -37.6260  -12.4380   49.1610 C.2   300  SER300      0.2619
    124  O        -36.5640  -11.9440   48.7670 O.2   300  SER300     -0.2717
    125  CB       -36.8470  -14.6100   48.2140 C.3   300  SER300      0.2103
    126  OG       -35.9720  -14.9510   49.2800 O.3   300  SER300     -0.2182
    127  N        -38.5030  -11.7840   49.9140 N.am  301  TYR301     -0.1961
    128  CA       -38.2790  -10.4080   50.3160 C.3   301  TYR301      0.1771
    129  C        -37.7220  -10.1850   51.7080 C.2   301  TYR301      0.2620
    130  O        -38.0580  -10.8930   52.6590 O.2   301  TYR301     -0.2715
    131  CB       -39.5790   -9.6090   50.1900 C.3   301  TYR301      0.0574
    132  CG       -40.1330   -9.4710   48.7820 C.ar  301  TYR301     -0.0198
    133  CD1      -39.3610   -9.7870   47.6580 C.ar  301  TYR301     -0.0009
    134  CD2      -41.4180   -8.9650   48.5750 C.ar  301  TYR301     -0.0009
    135  CE1      -39.8600   -9.5960   46.3730 C.ar  301  TYR301      0.0417
    136  CE2      -41.9230   -8.7730   47.2960 C.ar  301  TYR301      0.0417
    137  CZ       -41.1420   -9.0870   46.2020 C.ar  301  TYR301      0.1957
    138  OH       -41.6460   -8.8810   44.9410 O.3   301  TYR301     -0.2866
    139  N        -36.8660   -9.1730   51.8010 N.am  302  GLY302     -0.1940
    140  CA       -36.2780   -8.7920   53.0650 C.3   302  GLY302      0.2014
    141  C        -36.9180   -7.4590   53.4150 C.2   302  GLY302      0.2638
    142  O        -37.8780   -7.3990   54.1840 O.2   302  GLY302     -0.2714
    143  N        -36.4040   -6.3890   52.8190 N.am  303  ARG303     -0.1977
    144  CA       -36.9220   -5.0480   53.0620 C.3   303  ARG303      0.1597
    145  C        -38.4120   -4.8940   52.7360 C.2   303  ARG303      0.2287
    146  O        -39.1560   -4.2990   53.5120 O.2   303  ARG303     -0.2864
    147  CB       -36.1040   -4.0300   52.2600 C.3   303  ARG303      0.0334
    148  CG       -34.6870   -3.8350   52.7880 C.3   303  ARG303      0.0492
    149  CD       -33.7930   -3.1090   51.7820 C.3   303  ARG303      0.2205
    150  NE       -33.3970   -3.9780   50.6720 N.pl3 303  ARG303     -0.0865
    151  CZ       -32.6410   -3.5910   49.6510 C.cat 303  ARG303      0.5346
    152  NH1      -32.1950   -2.3430   49.5820 N.pl3 303  ARG303      0.1354
    153  NH2      -32.3160   -4.4590   48.7040 N.pl3 303  ARG303      0.1354
@<TRIPOS>BOND
     1    87    88    2
     2    87    86    1
     3    86    85    1
     4    86    89    1
     5    96    97    2
     6    96    95    1
     7    94    95    1
     8    95    98    1
     9    78    77    1
    10    78    79    2
    11    90    89    1
    12    90    91    1
    13   110   108    1
    14    77    76    1
    15    77    80    1
    16   108   109    1
    17   108   107    1
    18   106   105    2
    19   103   104    1
    20    98    99    1
    21   138   137    1
    22    93    91   ar
    23    91    92   ar
    24   114   113    2
    25   120   119    2
    26   105   104    1
    27   105   111   am
    28    81    80    1
    29    81    82    1
    30    99   100    1
    31   107   104    1
    32   118   119    1
    33   118   117    1
    34   113   117   am
    35   113   112    1
    36   137   135   ar
    37   137   136   ar
    38   135   133   ar
    39   112   111    1
    40   112   115    1
    41    84    82   ar
    42    82    83   ar
    43    67    68    2
    44    67    66    1
    45   100   101    1
    46   136   134   ar
    47    66    65    1
    48    66    69    1
    49   133   132   ar
    50   115   116    1
    51    75    73    1
    52    70    69    1
    53    70    71    1
    54   121   122    1
    55    72    73    2
    56    72    71    1
    57   101   102    1
    58   125   122    1
    59   125   126    1
    60    73    74    1
    61   134   132   ar
    62   153   151    1
    63   122   123    1
    64   124   123    2
    65   132   131    1
    66   123   127   am
    67   152   151    1
    68   151   150    2
    69   127   128    1
    70    61    62    1
    71    61    60    1
    72   131   128    1
    73   128   129    1
    74    58    57    1
    75    58    59    2
    76    57    60    1
    77    57    56    1
    78    62    63    1
    79   150   149    1
    80    55    54    2
    81    63    64    1
    82    54    53    1
    83    48    49    1
    84    48    45    1
    85    51    49   ar
    86    49    50   ar
    87   129   139   am
    88   129   130    2
    89   149   148    1
    90   139   140    1
    91   147   148    1
    92   147   144    1
    93    53    52    1
    94    45    44    1
    95    45    46    1
    96     5     2    1
    97   145   144    1
    98   145   146    2
    99   143   144    1
   100   143   141   am
   101   140   141    1
   102   141   142    2
   103    46    47    2
   104     1     2    1
   105     2     3    1
   106    13    11   ar
   107    12    11   ar
   108    40    39    1
   109    40    41    1
   110    36    39    1
   111    36    37    1
   112    36    35    1
   113    11    10    1
   114    43    42    1
   115     4     3    2
   116    37    38    2
   117    42    41    1
   118    10     7    1
   119    34    33    1
   120    22    20   ar
   121     6     7    1
   122     9     8    2
   123    19    20    1
   124    19    18    1
   125     7     8    1
   126     8    14   am
   127    33    30    1
   128    20    21   ar
   129    14    15    1
   130    15    18    1
   131    15    16    1
   132    28    27    1
   133    23    16   am
   134    23    24    1
   135    30    31    1
   136    30    29    1
   137    27    24    1
   138    16    17    2
   139    32    31    2
   140    24    25    1
   141    26    25    2
