@<TRIPOS>MOLECULE
tmp/1zaoA00.pdb
 195 183 0 0 0
SMALL
GASTEIGER

@<TRIPOS>ATOM
      1  N         56.0740   25.9570   22.9050 N.3    98  MET98      -0.1230
      2  CA        55.1290   26.9160   23.4500 C.3    98  MET98       0.1702
      3  C         54.5230   26.3550   24.7310 C.2    98  MET98       0.2592
      4  O         54.3420   27.0710   25.7160 O.2    98  MET98      -0.2718
      5  CB        54.0240   27.2490   22.4350 C.3    98  MET98       0.0401
      6  CG        53.0250   28.2870   22.9220 C.3    98  MET98       0.0596
      7  SD        51.5760   28.4210   21.8740 S.3    98  MET98      -0.1393
      8  CE        52.2660   29.3770   20.5650 C.3    98  MET98       0.0692
      9  N         54.2130   25.0630   24.7130 N.am   99  GLY99      -0.1957
     10  CA        53.6000   24.4120   25.8470 C.3    99  GLY99       0.1869
     11  C         53.3450   22.9510   25.5360 C.2    99  GLY99       0.2309
     12  O         53.1860   22.5630   24.3680 O.2    99  GLY99      -0.2863
     13  N         51.2490   19.3690   27.3590 N.3   101  GLY101     -0.1225
     14  CA        50.4410   18.7140   28.3950 C.3   101  GLY101      0.1811
     15  C         50.2930   17.2410   28.1100 C.2   101  GLY101      0.2280
     16  O         51.1020   16.6440   27.3760 O.2   101  GLY101     -0.2866
     17  N         48.1140   15.8270   26.3460 N.3   103  GLU103     -0.1231
     18  CA        47.5590   15.5530   25.0300 C.3   103  GLU103      0.1699
     19  C         48.3870   15.9270   23.8130 C.2   103  GLU103      0.2592
     20  O         48.1790   15.3470   22.7430 O.2   103  GLU103     -0.2718
     21  CB        46.2100   16.2340   24.8610 C.3   103  GLU103      0.0402
     22  CG        45.1250   15.7350   25.7820 C.3   103  GLU103      0.1161
     23  CD        43.9840   16.6890   25.7410 C.2   103  GLU103      0.3649
     24  OE1       43.2250   16.6600   24.7450 O.co2 103  GLU103     -0.2457
     25  OE2       43.8900   17.5120   26.6760 O.co2 103  GLU103     -0.2457
     26  N         49.2300   16.9550   23.9400 N.am  104  SER104     -0.1952
     27  CA        49.9740   17.4720   22.7770 C.3   104  SER104      0.1924
     28  C         51.2060   18.2030   23.2430 C.2   104  SER104      0.2314
     29  O         51.3490   18.5590   24.4530 O.2   104  SER104     -0.2863
     30  CB        49.1120   18.4460   21.9160 C.3   104  SER104      0.2116
     31  OG        48.9790   19.7100   22.5850 O.3   104  SER104     -0.2180
     32  N         52.9910   21.7140   21.6250 N.3   106  VAL106     -0.1245
     33  CA        52.8040   22.7360   20.6040 C.3   106  VAL106      0.1561
     34  C         54.0920   23.5760   20.5280 C.2   106  VAL106      0.2260
     35  O         54.5490   24.0990   21.5640 O.2   106  VAL106     -0.2867
     36  CB        51.5470   23.6280   20.9170 C.3   106  VAL106      0.0252
     37  CG1       51.4020   24.7730   19.8890 C.3   106  VAL106      0.0019
     38  CG2       50.2710   22.7810   20.9580 C.3   106  VAL106      0.0019
     39  N         52.4440   27.7180   14.2570 N.3   118  VAL118     -0.1245
     40  CA        52.6510   26.6510   15.2400 C.3   118  VAL118      0.1561
     41  C         52.4990   25.2800   14.6100 C.2   118  VAL118      0.2260
     42  O         51.7630   25.1190   13.6430 O.2   118  VAL118     -0.2867
     43  CB        51.7530   26.7450   16.5210 C.3   118  VAL118      0.0252
     44  CG1       52.1040   28.0530   17.3610 C.3   118  VAL118      0.0019
     45  CG2       50.3170   26.6740   16.1810 C.3   118  VAL118      0.0019
     46  N         51.5870   21.5210   16.0640 N.3   120  LYS120     -0.1245
     47  CA        51.0830   20.7920   17.2070 C.3   120  LYS120      0.1561
     48  C         51.2620   19.2920   16.9590 C.2   120  LYS120      0.2260
     49  O         50.7390   18.7390   15.9730 O.2   120  LYS120     -0.2867
     50  CB        49.5930   21.1020   17.4750 C.3   120  LYS120      0.0271
     51  CG        49.0440   20.2180   18.6110 C.3   120  LYS120      0.0035
     52  CD        47.6960   20.7140   19.2010 C.3   120  LYS120      0.0206
     53  CE        46.5930   20.5630   18.2110 C.3   120  LYS120      0.1093
     54  NZ        45.2480   20.5300   18.8950 N.3   120  LYS120     -0.1314
     55  N         50.4880   15.6080   18.1760 N.3   122  HIS122     -0.1241
     56  CA        49.4400   14.8950   18.8910 C.3   122  HIS122      0.1621
     57  C         50.0380   13.7170   19.6780 C.2   122  HIS122      0.2264
     58  O         50.8010   12.9270   19.1200 O.2   122  HIS122     -0.2867
     59  CB        48.3930   14.4530   17.8750 C.3   122  HIS122      0.0745
     60  CG        47.5110   15.5720   17.4170 C.ar  122  HIS122      0.0817
     61  ND1       47.8420   16.4130   16.3710 N.ar  122  HIS122     -0.2268
     62  CD2       46.3470   16.0380   17.9230 C.ar  122  HIS122      0.1154
     63  CE1       46.8970   17.3290   16.2350 C.ar  122  HIS122      0.1986
     64  NE2       45.9770   17.1200   17.1590 N.ar  122  HIS122     -0.2212
     65  N         47.9570   11.7340   21.8350 N.3   124  VAL124     -0.1245
     66  CA        46.9310   10.7540   22.1560 C.3   124  VAL124      0.1561
     67  C         45.8960   10.6610   21.0530 C.2   124  VAL124      0.2260
     68  O         45.7430   11.5870   20.2160 O.2   124  VAL124     -0.2867
     69  CB        46.1730   11.1020   23.4720 C.3   124  VAL124      0.0252
     70  CG1       47.1260   11.1580   24.6470 C.3   124  VAL124      0.0019
     71  CG2       45.4160   12.4430   23.3160 C.3   124  VAL124      0.0019
     72  N         41.8650   10.3570   19.9680 N.3   126  HIS126     -0.1241
     73  CA        40.6130   10.9360   20.4330 C.3   126  HIS126      0.1621
     74  C         39.4500   10.1720   19.7950 C.2   126  HIS126      0.2264
     75  O         38.5810   10.7850   19.1680 O.2   126  HIS126     -0.2867
     76  CB        40.5330   12.4230   20.0580 C.3   126  HIS126      0.0745
     77  CG        41.3600   13.3270   20.9180 C.ar  126  HIS126      0.0817
     78  ND1       40.9500   13.7580   22.1640 N.ar  126  HIS126     -0.2268
     79  CD2       42.5640   13.9110   20.6970 C.ar  126  HIS126      0.1154
     80  CE1       41.8670   14.5650   22.6730 C.ar  126  HIS126      0.1986
     81  NE2       42.8530   14.6810   21.7970 N.ar  126  HIS126     -0.2212
     82  N         42.0840   28.8230   13.3550 N.3   156  PRO156     -0.2116
     83  CA        43.3570   29.1020   12.6480 C.3   156  PRO156      0.1372
     84  C         43.3180   28.6560   11.1950 C.2   156  PRO156      0.2244
     85  O         42.6790   27.6370   10.8760 O.2   156  PRO156     -0.2868
     86  CB        44.4060   28.2800   13.4240 C.3   156  PRO156      0.0268
     87  CG        43.7280   27.9070   14.7560 C.3   156  PRO156      0.0207
     88  CD        42.2250   27.8210   14.4250 C.3   156  PRO156      0.0892
     89  N         49.6910   25.0580   11.5130 N.3   168  MET168     -0.1230
     90  CA        48.6060   26.0390   11.4180 C.3   168  MET168      0.1702
     91  C         49.0610   27.4350   11.8510 C.2   168  MET168      0.2592
     92  O         50.1410   27.6120   12.3970 O.2   168  MET168     -0.2718
     93  CB        47.4250   25.5610   12.2900 C.3   168  MET168      0.0401
     94  CG        47.7020   25.7310   13.7900 C.3   168  MET168      0.0596
     95  SD        46.3750   25.0820   14.8140 S.3   168  MET168     -0.1393
     96  CE        46.8660   23.3660   15.0000 C.3   168  MET168      0.0692
     97  N         48.2070   28.4130   11.6260 N.am  169  GLU169     -0.1966
     98  CA        48.4180   29.8010   12.0370 C.3   169  GLU169      0.1733
     99  C         48.6100   30.0020   13.5470 C.2   169  GLU169      0.2616
    100  O         47.8860   29.4020   14.3620 O.2   169  GLU169     -0.2715
    101  CB        47.1710   30.5920   11.6110 C.3   169  GLU169      0.0429
    102  CG        47.3070   32.1190   11.7990 C.3   169  GLU169      0.1163
    103  CD        46.0220   32.8350   11.5100 C.2   169  GLU169      0.3649
    104  OE1       45.0070   32.1620   11.2050 O.co2 169  GLU169     -0.2457
    105  OE2       46.0320   34.0910   11.5690 O.co2 169  GLU169     -0.2457
    106  N         49.5790   30.8440   13.9210 N.am  170  LEU170     -0.1963
    107  CA        49.7490   31.2480   15.3140 C.3   170  LEU170      0.1728
    108  C         48.6640   32.2540   15.6040 C.2   170  LEU170      0.2616
    109  O         48.5140   33.2380   14.8580 O.2   170  LEU170     -0.2715
    110  CB        51.1130   31.9050   15.5490 C.3   170  LEU170      0.0311
    111  CG        51.3520   32.6090   16.8940 C.3   170  LEU170      0.0022
    112  CD1       51.3450   31.6360   18.0310 C.3   170  LEU170      0.0001
    113  CD2       52.6730   33.4170   16.8490 C.3   170  LEU170      0.0001
    114  N         47.9040   32.0040   16.6600 N.am  171  ILE171     -0.1977
    115  CA        46.8730   32.9510   17.0850 C.3   171  ILE171      0.1596
    116  C         47.4120   33.6930   18.2900 C.2   171  ILE171      0.2287
    117  O         47.6990   33.0880   19.3160 O.2   171  ILE171     -0.2864
    118  CB        45.5150   32.2630   17.4250 C.3   171  ILE171      0.0276
    119  CG1       44.9920   31.4410   16.2480 C.3   171  ILE171      0.0022
    120  CG2       44.4570   33.3450   17.8590 C.3   171  ILE171      0.0022
    121  CD1       44.7540   32.2080   14.9690 C.3   171  ILE171      0.0001
    122  N         46.5110   35.2490   21.0640 N.3   173  ALA173     -0.1245
    123  CA        45.3330   35.3650   21.9330 C.3   173  ALA173      0.1562
    124  C         45.4300   34.3090   23.0260 C.2   173  ALA173      0.2260
    125  O         46.0330   33.2450   22.8250 O.2   173  ALA173     -0.2867
    126  CB        44.0550   35.1870   21.1210 C.3   173  ALA173      0.0290
    127  N         43.7840   31.7760   26.2590 N.3   175  GLU175     -0.1245
    128  CA        42.6040   30.9630   26.5440 C.3   175  GLU175      0.1567
    129  C         41.5890   31.8010   27.3170 C.2   175  GLU175      0.2260
    130  O         41.9700   32.5610   28.2460 O.2   175  GLU175     -0.2867
    131  CB        42.9800   29.7410   27.3710 C.3   175  GLU175      0.0388
    132  CG        43.8750   28.7200   26.6470 C.3   175  GLU175      0.1160
    133  CD        44.1300   27.4690   27.4870 C.2   175  GLU175      0.3649
    134  OE1       43.5170   27.3210   28.5550 O.co2 175  GLU175     -0.2457
    135  OE2       44.9350   26.6090   27.0650 O.co2 175  GLU175     -0.2457
    136  N         39.0080   26.3150   27.6890 N.3   211  TYR211     -0.1227
    137  CA        40.3980   26.0610   27.3980 C.3   211  TYR211      0.1736
    138  C         40.6380   26.0150   25.8950 C.2   211  TYR211      0.2595
    139  O         41.7820   26.0950   25.4660 O.2   211  TYR211     -0.2718
    140  CB        40.8230   24.7160   28.0050 C.3   211  TYR211      0.0548
    141  CG        40.4980   24.6180   29.4730 C.ar  211  TYR211     -0.0200
    142  CD1       41.1970   25.3880   30.4000 C.ar  211  TYR211     -0.0009
    143  CD2       39.4680   23.7840   29.9350 C.ar  211  TYR211     -0.0009
    144  CE1       40.9050   25.3170   31.7550 C.ar  211  TYR211      0.0417
    145  CE2       39.1550   23.7280   31.2970 C.ar  211  TYR211      0.0417
    146  CZ        39.8970   24.4810   32.1930 C.ar  211  TYR211      0.1957
    147  OH        39.6240   24.4340   33.5400 O.3   211  TYR211     -0.2866
    148  N         39.5660   25.9020   25.1140 N.am  212  ASN212     -0.1974
    149  CA        39.6690   25.7230   23.6570 C.3   212  ASN212      0.1688
    150  C         39.0920   26.9030   22.8690 C.2   212  ASN212      0.2292
    151  O         38.9150   26.8210   21.6530 O.2   212  ASN212     -0.2864
    152  CB        38.9940   24.3950   23.2450 C.3   212  ASN212      0.1181
    153  CG        39.7970   23.1840   23.6900 C.2   212  ASN212      0.2629
    154  OD1       41.0400   23.2410   23.7690 O.2   212  ASN212     -0.2716
    155  ND2       39.1030   22.0630   23.9280 N.am  212  ASN212     -0.0877
    156  N         40.0070   30.8960   22.2450 N.3   214  LEU214     -0.1245
    157  CA        41.0430   31.9270   22.4800 C.3   214  LEU214      0.1561
    158  C         40.4020   33.2920   22.2960 C.2   214  LEU214      0.2260
    159  O         39.5370   33.4420   21.4410 O.2   214  LEU214     -0.2867
    160  CB        42.2210   31.7400   21.5150 C.3   214  LEU214      0.0270
    161  CG        42.9070   30.3770   21.4960 C.3   214  LEU214      0.0019
    162  CD1       44.1320   30.4110   20.5440 C.3   214  LEU214      0.0001
    163  CD2       43.3510   29.9620   22.8960 C.3   214  LEU214      0.0001
    164  N         39.7760   26.6410   18.8460 N.3   223  ILE223     -0.1231
    165  CA        40.8340   25.7340   18.4680 C.3   223  ILE223      0.1692
    166  C         40.5560   24.3130   18.9640 C.2   223  ILE223      0.2592
    167  O         39.6010   24.0880   19.7210 O.2   223  ILE223     -0.2718
    168  CB        42.2310   26.2170   19.0290 C.3   223  ILE223      0.0266
    169  CG1       42.2390   26.2240   20.5660 C.3   223  ILE223      0.0019
    170  CG2       42.6160   27.5890   18.4220 C.3   223  ILE223      0.0020
    171  CD1       43.6790   26.4500   21.1490 C.3   223  ILE223      0.0001
    172  N         41.4040   23.3740   18.5260 N.am  224  ASP224     -0.1974
    173  CA        41.5050   22.0370   19.1090 C.3   224  ASP224      0.1709
    174  C         40.4100   21.1030   18.5890 C.2   224  ASP224      0.2293
    175  O         39.4000   20.9010   19.2680 O.2   224  ASP224     -0.2864
    176  CB        41.5120   22.0780   20.6720 C.3   224  ASP224      0.1436
    177  CG        41.9830   20.7640   21.2740 C.2   224  ASP224      0.3671
    178  OD1       42.5880   19.9720   20.5080 O.co2 224  ASP224     -0.2456
    179  OD2       41.8180   20.5620   22.4970 O.co2 224  ASP224     -0.2456
    180  N         40.8350   17.5730   17.2520 N.3   226  PRO226     -0.2102
    181  CA        41.0490   16.1480   16.8900 C.3   226  PRO226      0.1504
    182  C         39.8920   15.2040   17.2610 C.2   226  PRO226      0.2575
    183  O         39.7420   14.1390   16.6560 O.2   226  PRO226     -0.2718
    184  CB        42.3020   15.7720   17.6730 C.3   226  PRO226      0.0282
    185  CG        42.2200   16.6360   18.9060 C.3   226  PRO226      0.0208
    186  CD        41.7180   17.9840   18.3520 C.3   226  PRO226      0.0893
    187  N         39.0930   15.6200   18.2290 N.am  227  GLN227     -0.1980
    188  CA        37.9020   14.8890   18.6750 C.3   227  GLN227      0.1601
    189  C         36.6210   15.2990   17.9250 C.2   227  GLN227      0.2287
    190  O         35.5290   14.7960   18.2300 O.2   227  GLN227     -0.2864
    191  CB        37.7320   15.0500   20.2000 C.3   227  GLN227      0.0394
    192  CG        37.2320   16.4070   20.6570 C.3   227  GLN227      0.0908
    193  CD        38.2060   17.5360   20.3170 C.2   227  GLN227      0.2608
    194  OE1       39.3860   17.4800   20.6810 O.2   227  GLN227     -0.2717
    195  NE2       37.7160   18.5540   19.6100 N.am  227  GLN227     -0.0878
@<TRIPOS>BOND
     1    85    84    2
     2    84    83    1
     3   104   103   ar
     4    90    89    1
     5    90    91    1
     6    90    93    1
     7   103   105   ar
     8   103   102    1
     9   101   102    1
    10   101    98    1
    11    97    91   am
    12    97    98    1
    13    91    92    2
    14    98    99    1
    15    93    94    1
    16    83    82    1
    17    83    86    1
    18    82    88    1
    19    86    87    1
    20    99   106   am
    21    99   100    2
    22    42    41    2
    23    94    95    1
    24   106   107    1
    25    39    40    1
    26    88    87    1
    27    41    40    1
    28    95    96    1
    29   109   108    2
    30   121   119    1
    31    40    43    1
    32   107   110    1
    33   107   108    1
    34   110   111    1
    35   108   114   am
    36    49    48    2
    37    46    47    1
    38    45    43    1
    39    63    61   ar
    40    63    64   ar
    41   119   118    1
    42    61    60   ar
    43    43    44    1
    44   183   182    2
    45   114   115    1
    46   113   111    1
    47   181   180    1
    48   181   182    1
    49   181   184    1
    50   111   112    1
    51    48    47    1
    52   115   118    1
    53   115   116    1
    54    64    62   ar
    55    47    50    1
    56   180   186    1
    57   182   187   am
    58    60    59    1
    59    60    62   ar
    60   118   120    1
    61    50    51    1
    62   184   185    1
    63    59    56    1
    64   189   190    2
    65   189   188    1
    66    55    56    1
    67    53    54    1
    68    53    52    1
    69   187   188    1
    70   116   117    2
    71   186   185    1
    72   170   168    1
    73   165   164    1
    74   165   166    1
    75   165   168    1
    76   172   166   am
    77   172   173    1
    78   174   173    1
    79   174   175    2
    80    51    52    1
    81   188   191    1
    82    56    57    1
    83   166   167    2
    84   168   169    1
    85   173   176    1
    86    58    57    2
    87    75    74    2
    88   195   193   am
    89    74    73    1
    90    37    36    1
    91    72    73    1
    92    76    73    1
    93    76    77    1
    94   191   192    1
    95    68    67    2
    96   193   192    1
    97   193   194    2
    98   178   177   ar
    99    34    33    1
   100    34    35    2
   101   162   161    1
   102     8     7    1
   103   169   171    1
   104    33    36    1
   105    33    32    1
   106   176   177    1
   107    79    77   ar
   108    79    81   ar
   109    36    38    1
   110    77    78   ar
   111    67    66    1
   112   122   123    1
   113   126   123    1
   114   177   179   ar
   115   159   158    2
   116   161   160    1
   117   161   163    1
   118   160   157    1
   119   151   150    2
   120    81    80   ar
   121    65    66    1
   122     7     6    1
   123    30    31    1
   124    30    27    1
   125   123   124    1
   126    66    69    1
   127    78    80   ar
   128   156   157    1
   129   158   157    1
   130     5     6    1
   131     5     2    1
   132    20    19    2
   133    27    28    1
   134    27    26    1
   135   125   124    2
   136   150   149    1
   137     1     2    1
   138    28    29    2
   139   152   149    1
   140   152   153    1
   141    71    69    1
   142     2     3    1
   143    69    70    1
   144   149   148    1
   145   153   154    2
   146   153   155   am
   147    19    26   am
   148    19    18    1
   149    12    11    2
   150     9     3   am
   151     9    10    1
   152     3     4    2
   153    24    23   ar
   154    21    18    1
   155    21    22    1
   156    18    17    1
   157   148   138   am
   158   139   138    2
   159    11    10    1
   160    23    22    1
   161    23    25   ar
   162   138   137    1
   163   127   128    1
   164   128   129    1
   165   128   131    1
   166   132   131    1
   167   132   133    1
   168   135   133   ar
   169   129   130    2
   170    13    14    1
   171    16    15    2
   172   137   136    1
   173   137   140    1
   174   133   134   ar
   175   140   141    1
   176    15    14    1
   177   141   143   ar
   178   141   142   ar
   179   143   145   ar
   180   142   144   ar
   181   145   146   ar
   182   144   146   ar
   183   146   147    1
