@<TRIPOS>MOLECULE
tmp/1zarA00.pdb
 168 156 0 0 0
SMALL
GASTEIGER

@<TRIPOS>ATOM
      1  N         55.6200   52.6140   22.8360 N.3    97  MET97      -0.1230
      2  CA        54.6410   53.5370   23.4090 C.3    97  MET97       0.1702
      3  C         54.0430   52.9510   24.6820 C.2    97  MET97       0.2592
      4  O         53.9100   53.6410   25.6960 O.2    97  MET97      -0.2718
      5  CB        53.5610   53.9090   22.4030 C.3    97  MET97       0.0401
      6  CG        52.5850   54.9320   22.9280 C.3    97  MET97       0.0596
      7  SD        51.1930   55.1600   21.8370 S.3    97  MET97      -0.1393
      8  CE        51.8850   56.2820   20.6660 C.3    97  MET97       0.0692
      9  N         53.7090   51.6640   24.6370 N.am   98  GLY98      -0.1957
     10  CA        53.1250   50.9790   25.7810 C.3    98  GLY98       0.1869
     11  C         52.8440   49.5200   25.4670 C.2    98  GLY98       0.2309
     12  O         52.6860   49.1330   24.3150 O.2    98  GLY98      -0.2863
     13  N         50.7180   45.9510   27.2310 N.3   100  GLY100     -0.1225
     14  CA        49.9030   45.3330   28.2700 C.3   100  GLY100      0.1811
     15  C         49.6090   43.9080   27.8930 C.2   100  GLY100      0.2280
     16  O         50.3550   43.2820   27.1230 O.2   100  GLY100     -0.2866
     17  N         47.3080   42.5560   25.9980 N.3   102  GLU102     -0.1231
     18  CA        46.8000   42.2540   24.6510 C.3   102  GLU102      0.1699
     19  C         47.6530   42.7160   23.4740 C.2   102  GLU102      0.2592
     20  O         47.4110   42.2860   22.3630 O.2   102  GLU102     -0.2718
     21  CB        45.4460   42.8840   24.4390 C.3   102  GLU102      0.0402
     22  CG        44.3750   42.4810   25.4350 C.3   102  GLU102      0.1161
     23  CD        43.3380   43.5550   25.5140 C.2   102  GLU102      0.3649
     24  OE1       42.5290   43.6610   24.5630 O.co2 102  GLU102     -0.2457
     25  OE2       43.3600   44.3200   26.5070 O.co2 102  GLU102     -0.2457
     26  N         48.5850   43.6290   23.7140 N.am  103  SER103     -0.1952
     27  CA        49.3870   44.2040   22.6160 C.3   103  SER103      0.1924
     28  C         50.5990   44.9330   23.1460 C.2   103  SER103      0.2314
     29  O         50.6730   45.2920   24.3440 O.2   103  SER103     -0.2863
     30  CB        48.5700   45.1980   21.7580 C.3   103  SER103      0.2116
     31  OG        48.4130   46.4430   22.4600 O.3   103  SER103     -0.2180
     32  N         52.5590   48.3760   21.6090 N.3   105  VAL105     -0.1245
     33  CA        52.4130   49.4350   20.6000 C.3   105  VAL105      0.1561
     34  C         53.6890   50.2620   20.5140 C.2   105  VAL105      0.2260
     35  O         54.1680   50.7750   21.5280 O.2   105  VAL105     -0.2867
     36  CB        51.1990   50.3680   20.9060 C.3   105  VAL105      0.0252
     37  CG1       51.0970   51.4980   19.8440 C.3   105  VAL105      0.0019
     38  CG2       49.9250   49.5560   20.9240 C.3   105  VAL105      0.0019
     39  N         52.0630   54.3480   14.2780 N.3   117  VAL117     -0.1245
     40  CA        52.2610   53.3070   15.2780 C.3   117  VAL117      0.1561
     41  C         52.1520   51.9480   14.6160 C.2   117  VAL117      0.2260
     42  O         51.4210   51.7660   13.6380 O.2   117  VAL117     -0.2867
     43  CB        51.2890   53.3780   16.5210 C.3   117  VAL117      0.0252
     44  CG1       51.5360   54.6610   17.3180 C.3   117  VAL117      0.0019
     45  CG2       49.8720   53.2590   16.1070 C.3   117  VAL117      0.0019
     46  N         51.2010   48.1730   15.9250 N.3   119  LYS119     -0.1245
     47  CA        50.6220   47.4940   17.0780 C.3   119  LYS119      0.1561
     48  C         50.8330   45.9910   16.8560 C.2   119  LYS119      0.2260
     49  O         50.3330   45.4360   15.8800 O.2   119  LYS119     -0.2867
     50  CB        49.1190   47.8130   17.1810 C.3   119  LYS119      0.0271
     51  CG        48.3910   47.0610   18.3200 C.3   119  LYS119      0.0035
     52  CD        46.9260   47.4790   18.3970 C.3   119  LYS119      0.0206
     53  CE        46.1700   46.6540   19.4340 C.3   119  LYS119      0.1093
     54  NZ        44.7220   46.9740   19.2520 N.3   119  LYS119     -0.1314
     55  N         41.4970   43.3500   13.1750 N.3   140  GLU140     -0.1245
     56  CA        41.6420   44.7900   13.3880 C.3   140  GLU140      0.1567
     57  C         41.8920   45.5180   12.0770 C.2   140  GLU140      0.2260
     58  O         41.3110   46.5700   11.8130 O.2   140  GLU140     -0.2867
     59  CB        42.7920   45.0600   14.3640 C.3   140  GLU140      0.0388
     60  CG        43.0230   46.5430   14.5800 C.3   140  GLU140      0.1160
     61  CD        43.5940   46.8320   15.9300 C.2   140  GLU140      0.3649
     62  OE1       44.6210   46.2190   16.2290 O.co2 140  GLU140     -0.2457
     63  OE2       43.0200   47.6450   16.6850 O.co2 140  GLU140     -0.2457
     64  N         41.7970   55.7020   13.2390 N.3   153  PRO153     -0.2116
     65  CA        43.0880   55.9280   12.5560 C.3   153  PRO153      0.1372
     66  C         43.0490   55.4730   11.0950 C.2   153  PRO153      0.2244
     67  O         42.3940   54.4750   10.7710 O.2   153  PRO153     -0.2868
     68  CB        44.0570   55.0130   13.3180 C.3   153  PRO153      0.0268
     69  CG        43.3910   54.7690   14.6620 C.3   153  PRO153      0.0207
     70  CD        41.9170   54.7650   14.3790 C.3   153  PRO153      0.0892
     71  N         49.3840   51.7980   11.4710 N.3   165  MET165     -0.1230
     72  CA        48.3080   52.7700   11.3660 C.3   165  MET165      0.1702
     73  C         48.8020   54.1730   11.7560 C.2   165  MET165      0.2592
     74  O         49.9000   54.3710   12.3010 O.2   165  MET165     -0.2718
     75  CB        47.1000   52.3310   12.2480 C.3   165  MET165      0.0401
     76  CG        47.3870   52.4960   13.7080 C.3   165  MET165      0.0596
     77  SD        46.0580   51.8880   14.7680 S.3   165  MET165     -0.1393
     78  CE        46.5210   50.1550   14.9120 C.3   165  MET165      0.0692
     79  N         47.9460   55.1440   11.5000 N.am  166  GLU166     -0.1966
     80  CA        48.2150   56.5280   11.8080 C.3   166  GLU166      0.1733
     81  C         48.3680   56.7400   13.3230 C.2   166  GLU166      0.2616
     82  O         47.5850   56.2020   14.1170 O.2   166  GLU166     -0.2715
     83  CB        47.0100   57.3160   11.3050 C.3   166  GLU166      0.0429
     84  CG        47.0450   58.8340   11.6080 C.3   166  GLU166      0.1163
     85  CD        45.7700   59.5380   11.1820 C.2   166  GLU166      0.3649
     86  OE1       44.7320   58.8820   10.8860 O.co2 166  GLU166     -0.2457
     87  OE2       45.7890   60.7980   11.1490 O.co2 166  GLU166     -0.2457
     88  N         49.3490   57.5470   13.7210 N.am  167  LEU167     -0.1963
     89  CA        49.4770   57.9780   15.1210 C.3   167  LEU167      0.1728
     90  C         48.4350   59.0570   15.3580 C.2   167  LEU167      0.2616
     91  O         48.3390   60.0220   14.5970 O.2   167  LEU167     -0.2715
     92  CB        50.8800   58.5360   15.4390 C.3   167  LEU167      0.0311
     93  CG        51.0610   59.2800   16.7910 C.3   167  LEU167      0.0022
     94  CD1       51.0220   58.3220   17.9460 C.3   167  LEU167      0.0001
     95  CD2       52.3840   60.0660   16.8110 C.3   167  LEU167      0.0001
     96  N         47.6370   58.8760   16.4010 N.am  168  ILE168     -0.1977
     97  CA        46.6530   59.8870   16.7860 C.3   168  ILE168      0.1596
     98  C         47.1920   60.6670   17.9680 C.2   168  ILE168      0.2287
     99  O         47.5230   60.0860   18.9970 O.2   168  ILE168     -0.2864
    100  CB        45.2880   59.2300   17.1890 C.3   168  ILE168      0.0276
    101  CG1       44.6850   58.4350   16.0230 C.3   168  ILE168      0.0022
    102  CG2       44.3030   60.2960   17.6940 C.3   168  ILE168      0.0022
    103  CD1       44.6450   59.1940   14.6790 C.3   168  ILE168      0.0001
    104  N         46.1780   62.1620   20.6780 N.3   170  ALA170     -0.1245
    105  CA        45.0430   62.2900   21.6000 C.3   170  ALA170      0.1562
    106  C         45.2060   61.2880   22.7310 C.2   170  ALA170      0.2260
    107  O         45.9470   60.3150   22.6040 O.2   170  ALA170     -0.2867
    108  CB        43.7300   62.0770   20.8550 C.3   170  ALA170      0.0290
    109  N         43.6140   58.8080   26.0170 N.3   172  GLU172     -0.1245
    110  CA        42.4390   57.9660   26.3310 C.3   172  GLU172      0.1567
    111  C         41.4160   58.7870   27.1070 C.2   172  GLU172      0.2260
    112  O         41.7960   59.5940   27.9830 O.2   172  GLU172     -0.2867
    113  CB        42.8520   56.7740   27.1780 C.3   172  GLU172      0.0388
    114  CG        43.6610   55.7000   26.4440 C.3   172  GLU172      0.1160
    115  CD        44.0060   54.5280   27.3580 C.2   172  GLU172      0.3649
    116  OE1       43.3530   54.3750   28.4170 O.co2 172  GLU172     -0.2457
    117  OE2       44.9260   53.7540   27.0150 O.co2 172  GLU172     -0.2457
    118  N         38.7890   53.2670   27.5830 N.3   208  TYR208     -0.1227
    119  CA        40.2010   53.0310   27.2760 C.3   208  TYR208      0.1736
    120  C         40.4420   53.0130   25.7860 C.2   208  TYR208      0.2595
    121  O         41.6100   53.0860   25.3560 O.2   208  TYR208     -0.2718
    122  CB        40.6500   51.7050   27.8650 C.3   208  TYR208      0.0548
    123  CG        40.3310   51.6060   29.3210 C.ar  208  TYR208     -0.0200
    124  CD1       40.9790   52.4180   30.2400 C.ar  208  TYR208     -0.0009
    125  CD2       39.3520   50.7300   29.7710 C.ar  208  TYR208     -0.0009
    126  CE1       40.6780   52.3370   31.6000 C.ar  208  TYR208      0.0417
    127  CE2       39.0260   50.6570   31.1260 C.ar  208  TYR208      0.0417
    128  CZ        39.7010   51.4560   32.0220 C.ar  208  TYR208      0.1957
    129  OH        39.3740   51.3600   33.3640 O.3   208  TYR208     -0.2866
    130  N         39.3570   52.9020   25.0100 N.am  209  ASN209     -0.1974
    131  CA        39.4580   52.7890   23.5450 C.3   209  ASN209      0.1688
    132  C         38.8400   53.9430   22.7490 C.2   209  ASN209      0.2292
    133  O         38.6190   53.8380   21.5330 O.2   209  ASN209     -0.2864
    134  CB        38.8620   51.4460   23.1000 C.3   209  ASN209      0.1181
    135  CG        39.6780   50.2780   23.5800 C.2   209  ASN209      0.2629
    136  OD1       40.9120   50.3770   23.7100 O.2   209  ASN209     -0.2716
    137  ND2       39.0180   49.1480   23.8110 N.am  209  ASN209     -0.0877
    138  N         39.7830   57.8740   22.0850 N.3   211  LEU211     -0.1245
    139  CA        40.8330   58.8910   22.2680 C.3   211  LEU211      0.1561
    140  C         40.2010   60.2660   22.0830 C.2   211  LEU211      0.2260
    141  O         39.3170   60.4430   21.2380 O.2   211  LEU211     -0.2867
    142  CB        41.9820   58.6750   21.2710 C.3   211  LEU211      0.0270
    143  CG        42.6810   57.3220   21.2860 C.3   211  LEU211      0.0019
    144  CD1       43.9060   57.3450   20.3220 C.3   211  LEU211      0.0001
    145  CD2       43.1030   56.8830   22.6750 C.3   211  LEU211      0.0001
    146  N         39.5680   53.4720   18.7180 N.3   220  ILE220     -0.1231
    147  CA        40.6520   52.5430   18.3840 C.3   220  ILE220      0.1692
    148  C         40.3560   51.1350   18.9430 C.2   220  ILE220      0.2592
    149  O         39.3740   50.9360   19.6660 O.2   220  ILE220     -0.2718
    150  CB        42.0160   53.0340   18.9690 C.3   220  ILE220      0.0266
    151  CG1       41.9730   53.1050   20.5130 C.3   220  ILE220      0.0019
    152  CG2       42.4900   54.3940   18.3260 C.3   220  ILE220      0.0020
    153  CD1       43.3600   53.3520   21.1440 C.3   220  ILE220      0.0001
    154  N         41.2310   50.1790   18.6110 N.am  221  ASP221     -0.1974
    155  CA        41.2400   48.8420   19.2240 C.3   221  ASP221      0.1709
    156  C         40.1000   47.9310   18.7430 C.2   221  ASP221      0.2293
    157  O         39.1010   47.6800   19.4700 O.2   221  ASP221     -0.2864
    158  CB        41.2740   48.9570   20.7750 C.3   221  ASP221      0.1436
    159  CG        41.7320   47.6720   21.4720 C.2   221  ASP221      0.3671
    160  OD1       42.0960   46.7000   20.7920 O.co2 221  ASP221     -0.2456
    161  OD2       41.7360   47.6580   22.7350 O.co2 221  ASP221     -0.2456
    162  N         40.4100   44.4620   17.4500 N.3   223  PRO223     -0.2116
    163  CA        40.6080   43.0290   17.1900 C.3   223  PRO223      0.1372
    164  C         39.3980   42.1580   17.5800 C.2   223  PRO223      0.2244
    165  O         39.2670   41.0510   17.0800 O.2   223  PRO223     -0.2868
    166  CB        41.8070   42.6810   18.0810 C.3   223  PRO223      0.0268
    167  CG        41.6570   43.6020   19.2620 C.3   223  PRO223      0.0207
    168  CD        41.2090   44.9160   18.6050 C.3   223  PRO223      0.0892
@<TRIPOS>BOND
     1    67    66    2
     2    86    85   ar
     3    66    65    1
     4    87    85   ar
     5    85    84    1
     6    83    84    1
     7    83    80    1
     8    72    71    1
     9    72    73    1
    10    72    75    1
    11    79    73   am
    12    79    80    1
    13    73    74    2
    14    80    81    1
    15    58    57    2
    16    57    56    1
    17    75    76    1
    18    65    64    1
    19    65    68    1
    20    55    56    1
    21    64    70    1
    22    68    69    1
    23    81    88   am
    24    81    82    2
    25    56    59    1
    26    42    41    2
    27    76    77    1
    28    88    89    1
    29    39    40    1
    30    59    60    1
    31    70    69    1
    32    60    61    1
    33    91    90    2
    34    41    40    1
    35   103   101    1
    36    77    78    1
    37    89    90    1
    38    89    92    1
    39    40    43    1
    40    90    96   am
    41    92    93    1
    42    49    48    2
    43    46    47    1
    44    61    62   ar
    45    61    63   ar
    46   101   100    1
    47    45    43    1
    48    96    97    1
    49    43    44    1
    50    97   100    1
    51    97    98    1
    52    93    95    1
    53    93    94    1
    54    48    47    1
    55    47    50    1
    56   165   164    2
    57    50    51    1
    58   100   102    1
    59   163   162    1
    60   163   164    1
    61   163   166    1
    62   162   168    1
    63    98    99    2
    64   166   167    1
    65    51    52    1
    66   152   150    1
    67   147   146    1
    68   147   148    1
    69   147   150    1
    70    52    53    1
    71   168   167    1
    72   154   148   am
    73   154   155    1
    74   156   155    1
    75   156   157    2
    76   148   149    2
    77   150   151    1
    78   155   158    1
    79    54    53    1
    80    37    36    1
    81   144   143    1
    82   151   153    1
    83    34    33    1
    84    34    35    2
    85    33    36    1
    86    33    32    1
    87     8     7    1
    88   104   105    1
    89   158   159    1
    90   160   159   ar
    91   108   105    1
    92    36    38    1
    93   141   140    2
    94   142   143    1
    95   142   139    1
    96   143   145    1
    97   159   161   ar
    98   133   132    2
    99   105   106    1
   100    30    31    1
   101    30    27    1
   102     7     6    1
   103   140   139    1
   104   138   139    1
   105    20    19    2
   106     5     6    1
   107     5     2    1
   108   107   106    2
   109    27    28    1
   110    27    26    1
   111   132   131    1
   112     1     2    1
   113   134   131    1
   114   134   135    1
   115    28    29    2
   116     2     3    1
   117    19    26   am
   118    19    18    1
   119   131   130    1
   120   135   136    2
   121   135   137   am
   122    12    11    2
   123    21    18    1
   124    21    22    1
   125    24    23   ar
   126     9     3   am
   127     9    10    1
   128    18    17    1
   129     3     4    2
   130   130   120   am
   131   121   120    2
   132    22    23    1
   133    11    10    1
   134    23    25   ar
   135   120   119    1
   136   109   110    1
   137   110   111    1
   138   110   113    1
   139   114   113    1
   140   114   115    1
   141   117   115   ar
   142   111   112    2
   143    16    15    2
   144    13    14    1
   145   119   118    1
   146   119   122    1
   147   115   116   ar
   148   122   123    1
   149    15    14    1
   150   123   125   ar
   151   123   124   ar
   152   125   127   ar
   153   124   126   ar
   154   127   128   ar
   155   126   128   ar
   156   128   129    1
