@<TRIPOS>MOLECULE
tmp/1zb6A00.pdb
 210 193 0 0 0
SMALL
GASTEIGER

@<TRIPOS>ATOM
      1  N         32.7110   23.2430   15.3800 N.3    45  VAL45      -0.1245
      2  CA        31.6050   24.1810   15.3260 C.3    45  VAL45       0.1561
      3  C         30.3230   23.3900   15.1290 C.2    45  VAL45       0.2260
      4  O         30.1990   22.6310   14.1710 O.2    45  VAL45      -0.2867
      5  CB        31.7640   25.1860   14.1640 C.3    45  VAL45       0.0252
      6  CG1       30.6020   26.1740   14.1670 C.3    45  VAL45       0.0019
      7  CG2       33.0790   25.9370   14.2950 C.3    45  VAL45       0.0019
      8  N         26.0230   23.8740   15.3080 N.3    47  VAL47      -0.1245
      9  CA        24.9140   24.8080   15.3930 C.3    47  VAL47       0.1561
     10  C         23.5710   24.0920   15.3140 C.2    47  VAL47       0.2260
     11  O         23.4270   23.0910   14.6110 O.2    47  VAL47      -0.2867
     12  CB        24.9740   25.8380   14.2350 C.3    47  VAL47       0.0252
     13  CG1       24.0270   26.9940   14.5140 C.3    47  VAL47       0.0019
     14  CG2       26.3940   26.3310   14.0470 C.3    47  VAL47       0.0019
     15  N         19.7720   25.1390   14.4190 N.3    49  SER49      -0.1217
     16  CA        19.0020   26.2560   13.8920 C.3    49  SER49       0.1889
     17  C         17.5000   26.0860   13.7060 C.2    49  SER49       0.2288
     18  O         17.0180   25.0370   13.2830 O.2    49  SER49      -0.2866
     19  CB        19.6310   26.6920   12.5710 C.3    49  SER49       0.2089
     20  OG        21.0220   26.8930   12.7390 O.3    49  SER49      -0.2183
     21  N         17.5350   22.1530   12.1000 N.3    60  ASP60      -0.1239
     22  CA        18.7360   21.8400   11.3480 C.3    60  ASP60       0.1674
     23  C         19.9480   21.8170   12.2610 C.2    60  ASP60       0.2266
     24  O         20.0040   22.5550   13.2510 O.2    60  ASP60      -0.2867
     25  CB        18.9720   22.8930   10.2630 C.3    60  ASP60       0.1410
     26  CG        18.1880   22.6170    8.9930 C.2    60  ASP60       0.3668
     27  OD1       17.5340   21.5570    8.9150 O.co2  60  ASP60      -0.2456
     28  OD2       18.2340   23.4590    8.0690 O.co2  60  ASP60      -0.2456
     29  N         24.2170   21.8840   11.9660 N.3    62  SER62      -0.1217
     30  CA        25.3890   22.0780   11.1230 C.3    62  SER62       0.1889
     31  C         26.6170   21.6410   11.9080 C.2    62  SER62       0.2288
     32  O         26.7760   22.0040   13.0700 O.2    62  SER62      -0.2866
     33  CB        25.5330   23.5500   10.7420 C.3    62  SER62       0.2089
     34  OG        24.3470   24.0540   10.1560 O.3    62  SER62      -0.2183
     35  N         30.9470   21.1840   11.5980 N.3    64  SER64      -0.1217
     36  CA        32.1780   21.3960   10.8480 C.3    64  SER64       0.1889
     37  C         32.8970   20.0670   10.6520 C.2    64  SER64       0.2288
     38  O         32.7730   19.1620   11.4740 O.2    64  SER64      -0.2866
     39  CB        33.0910   22.3670   11.5990 C.3    64  SER64       0.2089
     40  OG        33.3020   21.9070   12.9200 O.3    64  SER64      -0.2183
     41  N         38.1880   24.1320    4.8360 N.3   104  MET104     -0.1245
     42  CA        37.3680   23.3870    5.7730 C.3   104  MET104      0.1570
     43  C         36.0360   23.0000    5.1470 C.2   104  MET104      0.2261
     44  O         35.5960   23.6240    4.1870 O.2   104  MET104     -0.2867
     45  CB        37.1140   24.2450    7.0130 C.3   104  MET104      0.0387
     46  CG        36.2890   23.5740    8.0880 C.3   104  MET104      0.0595
     47  SD        36.6850   24.1990    9.7270 S.3   104  MET104     -0.1393
     48  CE        35.2960   25.2770   10.0260 C.3   104  MET104      0.0692
     49  N         31.8610   21.2480    6.0820 N.3   106  ALA106     -0.1245
     50  CA        30.7980   21.2040    7.0710 C.3   106  ALA106      0.1562
     51  C         29.6290   20.4570    6.4410 C.2   106  ALA106      0.2260
     52  O         29.5180   20.3830    5.2110 O.2   106  ALA106     -0.2867
     53  CB        30.3840   22.6030    7.4940 C.3   106  ALA106      0.0290
     54  N         25.2620   19.5260    6.9110 N.3   108  ASP108     -0.1239
     55  CA        24.0320   20.0020    7.4990 C.3   108  ASP108      0.1674
     56  C         22.9970   18.8860    7.4190 C.2   108  ASP108      0.2266
     57  O         22.9440   18.1470    6.4370 O.2   108  ASP108     -0.2867
     58  CB        23.5770   21.2310    6.7100 C.3   108  ASP108      0.1410
     59  CG        23.8760   22.5260    7.4080 C.2   108  ASP108      0.3668
     60  OD1       24.8160   22.5550    8.2270 O.co2 108  ASP108     -0.2456
     61  OD2       23.1550   23.5140    7.1440 O.co2 108  ASP108     -0.2456
     62  N         21.4910   16.5760    4.3950 N.3   116  LYS116     -0.1231
     63  CA        20.9370   17.3150    3.2650 C.3   116  LYS116      0.1693
     64  C         21.9200   18.2510    2.5460 C.2   116  LYS116      0.2591
     65  O         21.7130   18.5840    1.3800 O.2   116  LYS116     -0.2718
     66  CB        19.6910   18.0980    3.6980 C.3   116  LYS116      0.0285
     67  CG        19.9180   19.1420    4.7830 C.3   116  LYS116      0.0035
     68  CD        18.7140   20.0790    4.8670 C.3   116  LYS116      0.0206
     69  CE        18.9680   21.2530    5.8070 C.3   116  LYS116      0.1093
     70  NZ        17.8920   22.2840    5.7120 N.3   116  LYS116     -0.1314
     71  N         22.9920   18.6720    3.2180 N.am  117  LYS117     -0.1980
     72  CA        23.9550   19.5510    2.5640 C.3   117  LYS117      0.1596
     73  C         25.3810   19.5780    3.1100 C.2   117  LYS117      0.2287
     74  O         25.6570   19.1740    4.2460 O.2   117  LYS117     -0.2864
     75  CB        23.4000   20.9850    2.4890 C.3   117  LYS117      0.0298
     76  CG        22.9230   21.5790    3.7830 C.3   117  LYS117      0.0038
     77  CD        22.2300   22.9560    3.6000 C.3   117  LYS117      0.0206
     78  CE        23.1550   23.9950    2.9820 C.3   117  LYS117      0.1093
     79  NZ        22.8170   25.4040    3.3280 N.3   117  LYS117     -0.1314
     80  N         29.2260   21.9840    2.9520 N.3   119  TYR119     -0.1241
     81  CA        29.7400   23.3320    2.8170 C.3   119  TYR119      0.1605
     82  C         31.2150   23.2500    2.4610 C.2   119  TYR119      0.2264
     83  O         31.9160   22.3300    2.8810 O.2   119  TYR119     -0.2867
     84  CB        29.6320   24.1070    4.1360 C.3   119  TYR119      0.0534
     85  CG        28.2330   24.4020    4.6110 C.ar  119  TYR119     -0.0201
     86  CD1       27.4500   23.4160    5.2080 C.ar  119  TYR119     -0.0009
     87  CD2       27.6920   25.6740    4.4680 C.ar  119  TYR119     -0.0009
     88  CE1       26.1600   23.6920    5.6500 C.ar  119  TYR119      0.0417
     89  CE2       26.4060   25.9590    4.9030 C.ar  119  TYR119      0.0417
     90  CZ        25.6480   24.9660    5.4880 C.ar  119  TYR119      0.1957
     91  OH        24.3690   25.2590    5.8850 O.3   119  TYR119     -0.2866
     92  N         34.4560   25.7400    2.7100 N.3   121  PHE121     -0.1241
     93  CA        34.9450   27.0230    3.2120 C.3   121  PHE121      0.1605
     94  C         36.2570   27.3850    2.5470 C.2   121  PHE121      0.2264
     95  O         37.0790   26.5070    2.2650 O.2   121  PHE121     -0.2867
     96  CB        35.1850   26.9820    4.7280 C.3   121  PHE121      0.0534
     97  CG        33.9370   26.8890    5.5430 C.ar  121  PHE121     -0.0203
     98  CD1       33.2150   25.7020    5.6010 C.ar  121  PHE121     -0.0042
     99  CD2       33.4890   27.9880    6.2730 C.ar  121  PHE121     -0.0042
    100  CE1       32.0540   25.6080    6.3840 C.ar  121  PHE121     -0.0003
    101  CE2       32.3300   27.9080    7.0610 C.ar  121  PHE121     -0.0003
    102  CZ        31.6160   26.7190    7.1150 C.ar  121  PHE121     -0.0000
    103  N         32.4010   31.0650    1.6290 N.3   160  MET160     -0.1245
    104  CA        32.0560   29.6490    1.5360 C.3   160  MET160      0.1570
    105  C         30.8040   29.4390    0.6940 C.2   160  MET160      0.2261
    106  O         30.0680   30.3730    0.4160 O.2   160  MET160     -0.2867
    107  CB        31.8120   29.0480    2.9250 C.3   160  MET160      0.0387
    108  CG        30.4240   29.3370    3.4610 C.3   160  MET160      0.0595
    109  SD        30.4330   30.2470    5.0030 S.3   160  MET160     -0.1393
    110  CE        29.3570   29.1800    5.9780 C.3   160  MET160      0.0692
    111  N         22.8440   21.9470   -1.3750 N.3   164  ASP164     -0.1239
    112  CA        21.6980   21.2520   -0.8140 C.3   164  ASP164      0.1674
    113  C         21.3590   20.1670   -1.8260 C.2   164  ASP164      0.2266
    114  O         20.8570   20.4580   -2.9180 O.2   164  ASP164     -0.2867
    115  CB        20.5220   22.2210   -0.6370 C.3   164  ASP164      0.1410
    116  CG        19.3200   21.5700    0.0300 C.2   164  ASP164      0.3668
    117  OD1       19.1060   20.3540   -0.1630 O.co2 164  ASP164     -0.2456
    118  OD2       18.5800   22.2840    0.7330 O.co2 164  ASP164     -0.2456
    119  N         24.1530   27.9410   -2.1760 N.3   171  ASN171     -0.1240
    120  CA        24.1820   29.2280   -1.4900 C.3   171  ASN171      0.1653
    121  C         25.5880   29.8090   -1.6390 C.2   171  ASN171      0.2266
    122  O         26.5720   29.0800   -1.5230 O.2   171  ASN171     -0.2867
    123  CB        23.8870   29.0740    0.0140 C.3   171  ASN171      0.1155
    124  CG        22.4230   28.8310    0.3080 C.2   171  ASN171      0.2627
    125  OD1       21.5940   28.8600   -0.5950 O.2   171  ASN171     -0.2716
    126  ND2       22.0940   28.5990    1.5910 N.am  171  ASN171     -0.0877
    127  N         27.9060   32.4200    0.1510 N.3   173  TYR173     -0.1241
    128  CA        28.0230   33.2660    1.3300 C.3   173  TYR173      0.1605
    129  C         29.0430   34.3800    1.1090 C.2   173  TYR173      0.2264
    130  O         30.2390   34.1820    1.2980 O.2   173  TYR173     -0.2867
    131  CB        28.3770   32.4200    2.5650 C.3   173  TYR173      0.0534
    132  CG        27.3430   31.3470    2.8900 C.ar  173  TYR173     -0.0201
    133  CD1       27.3390   30.1150    2.2290 C.ar  173  TYR173     -0.0009
    134  CD2       26.3400   31.5880    3.8260 C.ar  173  TYR173     -0.0009
    135  CE1       26.3520   29.1500    2.4960 C.ar  173  TYR173      0.0417
    136  CE2       25.3550   30.6420    4.0940 C.ar  173  TYR173      0.0417
    137  CZ        25.3600   29.4320    3.4330 C.ar  173  TYR173      0.1957
    138  OH        24.3580   28.5220    3.7020 O.3   173  TYR173     -0.2866
    139  N         23.6790   35.9520    1.7490 N.3   214  TYR214     -0.1241
    140  CA        23.7030   34.8170    0.8240 C.3   214  TYR214      0.1605
    141  C         22.4770   34.5340   -0.0190 C.2   214  TYR214      0.2264
    142  O         21.3830   34.3370    0.4920 O.2   214  TYR214     -0.2867
    143  CB        24.1190   33.4990    1.5220 C.3   214  TYR214      0.0534
    144  CG        23.3610   33.0720    2.7740 C.ar  214  TYR214     -0.0201
    145  CD1       22.5080   31.9590    2.7690 C.ar  214  TYR214     -0.0009
    146  CD2       23.5930   33.7100    3.9920 C.ar  214  TYR214     -0.0009
    147  CE1       21.9130   31.4870    3.9670 C.ar  214  TYR214      0.0417
    148  CE2       23.0160   33.2580    5.1780 C.ar  214  TYR214      0.0417
    149  CZ        22.1860   32.1560    5.1650 C.ar  214  TYR214      0.1957
    150  OH        21.6540   31.7340    6.3600 O.3   214  TYR214     -0.2866
    151  N         20.3930   32.2040   -2.8900 N.3   216  THR216     -0.1218
    152  CA        20.2580   30.7840   -3.2040 C.3   216  THR216      0.1862
    153  C         19.9910   30.6740   -4.7070 C.2   216  THR216      0.2287
    154  O         19.1150   31.3640   -5.2310 O.2   216  THR216     -0.2866
    155  CB        19.0730   30.1320   -2.4520 C.3   216  THR216      0.1770
    156  OG1       19.2740   30.2420   -1.0350 O.3   216  THR216     -0.2211
    157  CG2       18.9620   28.6450   -2.8180 C.3   216  THR216      0.0375
    158  N         16.0450   32.9660   -3.3110 N.3   226  ARG226     -0.1245
    159  CA        15.8590   33.7740   -2.1170 C.3   226  ARG226      0.1563
    160  C         17.1890   34.4080   -1.7230 C.2   226  ARG226      0.2260
    161  O         18.2390   34.0520   -2.2640 O.2   226  ARG226     -0.2867
    162  CB        15.2970   32.9100   -0.9740 C.3   226  ARG226      0.0307
    163  CG        16.1530   31.7040   -0.6210 C.3   226  ARG226      0.0489
    164  CD        15.4680   30.7930    0.4050 C.3   226  ARG226      0.2205
    165  NE        16.3700   29.7230    0.8260 N.pl3 226  ARG226     -0.0865
    166  CZ        16.4860   28.5500    0.2150 C.cat 226  ARG226      0.5346
    167  NH1       15.7410   28.2660   -0.8480 N.pl3 226  ARG226      0.1354
    168  NH2       17.3820   27.6750    0.6460 N.pl3 226  ARG226      0.1354
    169  N         10.9290   35.5010    5.9840 N.3   280  TYR280     -0.1241
    170  CA        10.8950   34.7030    7.2000 C.3   280  TYR280      0.1605
    171  C         12.2050   34.8710    7.9560 C.2   280  TYR280      0.2264
    172  O         13.1820   35.3980    7.4150 O.2   280  TYR280     -0.2867
    173  CB        10.5750   33.2310    6.9090 C.3   280  TYR280      0.0534
    174  CG        11.5460   32.4930    6.0220 C.ar  280  TYR280     -0.0201
    175  CD1       12.5740   31.7280    6.5690 C.ar  280  TYR280     -0.0009
    176  CD2       11.4110   32.5210    4.6310 C.ar  280  TYR280     -0.0009
    177  CE1       13.4460   31.0010    5.7580 C.ar  280  TYR280      0.0417
    178  CE2       12.2790   31.7960    3.8090 C.ar  280  TYR280      0.0417
    179  CZ        13.2910   31.0400    4.3800 C.ar  280  TYR280      0.1957
    180  OH        14.1430   30.3100    3.5840 O.3   280  TYR280     -0.2866
    181  N         15.3420   33.3750   10.7680 N.3   282  LYS282     -0.1245
    182  CA        16.0860   32.1910   11.1700 C.3   282  LYS282      0.1561
    183  C         16.9880   32.4810   12.3620 C.2   282  LYS282      0.2260
    184  O         17.3920   33.6240   12.5830 O.2   282  LYS282     -0.2867
    185  CB        16.8930   31.6680    9.9740 C.3   282  LYS282      0.0271
    186  CG        15.9890   31.2600    8.8090 C.3   282  LYS282      0.0035
    187  CD        16.7330   30.6290    7.6330 C.3   282  LYS282      0.0206
    188  CE        17.5360   31.6430    6.8430 C.3   282  LYS282      0.1093
    189  NZ        18.0470   31.0690    5.5480 N.3   282  LYS282     -0.1314
    190  N         24.7460   28.3970   18.4970 N.3   286  TYR286     -0.1241
    191  CA        25.9360   27.5690   18.5050 C.3   286  TYR286      0.1605
    192  C         26.0590   26.7340   19.7680 C.2   286  TYR286      0.2264
    193  O         25.9190   27.2400   20.8820 O.2   286  TYR286     -0.2867
    194  CB        27.1890   28.4340   18.3430 C.3   286  TYR286      0.0534
    195  CG        27.3620   29.0090   16.9550 C.ar  286  TYR286     -0.0201
    196  CD1       26.4050   29.8650   16.4090 C.ar  286  TYR286     -0.0009
    197  CD2       28.4690   28.6790   16.1750 C.ar  286  TYR286     -0.0009
    198  CE1       26.5450   30.3730   15.1190 C.ar  286  TYR286      0.0417
    199  CE2       28.6210   29.1820   14.8850 C.ar  286  TYR286      0.0417
    200  CZ        27.6540   30.0270   14.3650 C.ar  286  TYR286      0.1957
    201  OH        27.7890   30.5250   13.0900 O.3   286  TYR286     -0.2866
    202  N         34.3890   32.3800   15.6290 N.3   293  GLN293     -0.1245
    203  CA        33.1620   33.0350   16.0610 C.3   293  GLN293      0.1566
    204  C         33.4720   34.1180   17.0960 C.2   293  GLN293      0.2260
    205  O         32.8400   35.1780   17.1090 O.2   293  GLN293     -0.2867
    206  CB        32.1900   32.0020   16.6470 C.3   293  GLN293      0.0367
    207  CG        31.5500   31.0800   15.6030 C.3   293  GLN293      0.0905
    208  CD        32.5550   30.1740   14.9060 C.2   293  GLN293      0.2608
    209  OE1       32.4080   29.8600   13.7200 O.2   293  GLN293     -0.2717
    210  NE2       33.5760   29.7410   15.6420 N.am  293  GLN293     -0.0878
@<TRIPOS>BOND
     1   154   153    2
     2   153   152    1
     3   158   159    1
     4   152   151    1
     5   152   155    1
     6   114   113    2
     7   157   155    1
     8   155   156    1
     9   161   160    2
    10   119   120    1
    11   159   160    1
    12   159   162    1
    13   113   112    1
    14   121   122    2
    15   121   120    1
    16   120   123    1
    17   111   112    1
    18   162   163    1
    19   167   166    1
    20   112   115    1
    21   115   116    1
    22   163   164    1
    23   125   124    2
    24   117   116   ar
    25   141   142    2
    26   141   140    1
    27   123   124    1
    28   116   118   ar
    29   127   128    1
    30   166   168    1
    31   166   165    2
    32   124   126   am
    33   164   165    1
    34   106   105    2
    35   105   104    1
    36   140   143    1
    37   140   139    1
    38   129   130    2
    39   129   128    1
    40   128   131    1
    41    65    64    2
    42   143   144    1
    43   104   103    1
    44   104   107    1
    45   133   135   ar
    46   133   132   ar
    47    95    94    2
    48    82    81    1
    49    82    83    2
    50    75    72    1
    51    75    76    1
    52   135   137   ar
    53    64    71   am
    54    64    63    1
    55    94    93    1
    56    72    73    1
    57    72    71    1
    58   131   132    1
    59    92    93    1
    60   145   144   ar
    61   145   147   ar
    62   144   146   ar
    63    81    80    1
    64    81    84    1
    65   132   134   ar
    66   107   108    1
    67    78    79    1
    68    78    77    1
    69    73    74    2
    70    93    96    1
    71    63    66    1
    72    63    62    1
    73   137   138    1
    74   137   136   ar
    75   108   109    1
    76   180   179    1
    77    77    76    1
    78    66    67    1
    79   178   179   ar
    80   178   176   ar
    81   134   136   ar
    82   147   149   ar
    83   146   148   ar
    84    84    85    1
    85    44    43    2
    86   179   177   ar
    87    87    85   ar
    88    87    89   ar
    89    85    86   ar
    90   176   174   ar
    91    96    97    1
    92    67    68    1
    93    41    42    1
    94    68    69    1
    95    89    90   ar
    96   109   110    1
    97    43    42    1
    98   149   148   ar
    99   149   150    1
   100    86    88   ar
   101    52    51    2
   102    90    88   ar
   103    90    91    1
   104    97    98   ar
   105    97    99   ar
   106   189   188    1
   107    98   100   ar
   108    70    69    1
   109   177   175   ar
   110    42    45    1
   111   169   170    1
   112   174   175   ar
   113   174   173    1
   114    49    50    1
   115    99   101   ar
   116   100   102   ar
   117    57    56    2
   118    51    50    1
   119    58    59    1
   120    58    55    1
   121   188   187    1
   122   173   170    1
   123    54    55    1
   124    45    46    1
   125   101   102   ar
   126    50    53    1
   127    61    59   ar
   128   170   171    1
   129    59    60   ar
   130   172   171    2
   131    56    55    1
   132   187   186    1
   133    28    26   ar
   134    46    47    1
   135   186   185    1
   136    27    26   ar
   137    26    25    1
   138    47    48    1
   139   185   182    1
   140    34    33    1
   141    25    22    1
   142    37    36    1
   143    37    38    2
   144    33    30    1
   145   181   182    1
   146    36    35    1
   147    36    39    1
   148    30    31    1
   149    30    29    1
   150   182   183    1
   151    22    21    1
   152    22    23    1
   153    39    40    1
   154    31    32    2
   155    23    24    2
   156   183   184    2
   157    19    20    1
   158    19    16    1
   159   201   200    1
   160    18    17    2
   161    17    16    1
   162   209   208    2
   163    16    15    1
   164    14    12    1
   165     5     6    1
   166     5     7    1
   167     5     2    1
   168     4     3    2
   169    12    13    1
   170    12     9    1
   171   200   199   ar
   172   200   198   ar
   173    11    10    2
   174   199   197   ar
   175   208   207    1
   176   208   210   am
   177   198   196   ar
   178     3     2    1
   179     8     9    1
   180    10     9    1
   181     2     1    1
   182   207   206    1
   183   202   203    1
   184   203   206    1
   185   203   204    1
   186   197   195   ar
   187   196   195   ar
   188   195   194    1
   189   204   205    2
   190   194   191    1
   191   190   191    1
   192   191   192    1
   193   192   193    2
