@<TRIPOS>MOLECULE
tmp/1zb6A01.pdb
 127 119 0 0 0
SMALL
GASTEIGER

@<TRIPOS>ATOM
      1  N         26.0230   23.8740   15.3080 N.3    47  VAL47      -0.1245
      2  CA        24.9140   24.8080   15.3930 C.3    47  VAL47       0.1561
      3  C         23.5710   24.0920   15.3140 C.2    47  VAL47       0.2260
      4  O         23.4270   23.0910   14.6110 O.2    47  VAL47      -0.2867
      5  CB        24.9740   25.8380   14.2350 C.3    47  VAL47       0.0252
      6  CG1       24.0270   26.9940   14.5140 C.3    47  VAL47       0.0019
      7  CG2       26.3940   26.3310   14.0470 C.3    47  VAL47       0.0019
      8  N         19.7720   25.1390   14.4190 N.3    49  SER49      -0.1217
      9  CA        19.0020   26.2560   13.8920 C.3    49  SER49       0.1889
     10  C         17.5000   26.0860   13.7060 C.2    49  SER49       0.2288
     11  O         17.0180   25.0370   13.2830 O.2    49  SER49      -0.2866
     12  CB        19.6310   26.6920   12.5710 C.3    49  SER49       0.2089
     13  OG        21.0220   26.8930   12.7390 O.3    49  SER49      -0.2183
     14  N         34.4560   25.7400    2.7100 N.3   121  PHE121     -0.1241
     15  CA        34.9450   27.0230    3.2120 C.3   121  PHE121      0.1605
     16  C         36.2570   27.3850    2.5470 C.2   121  PHE121      0.2264
     17  O         37.0790   26.5070    2.2650 O.2   121  PHE121     -0.2867
     18  CB        35.1850   26.9820    4.7280 C.3   121  PHE121      0.0534
     19  CG        33.9370   26.8890    5.5430 C.ar  121  PHE121     -0.0203
     20  CD1       33.2150   25.7020    5.6010 C.ar  121  PHE121     -0.0042
     21  CD2       33.4890   27.9880    6.2730 C.ar  121  PHE121     -0.0042
     22  CE1       32.0540   25.6080    6.3840 C.ar  121  PHE121     -0.0003
     23  CE2       32.3300   27.9080    7.0610 C.ar  121  PHE121     -0.0003
     24  CZ        31.6160   26.7190    7.1150 C.ar  121  PHE121     -0.0000
     25  N         33.1050   33.6810    1.2040 N.3   159  GLN159     -0.1231
     26  CA        33.7600   32.9810    2.3080 C.3   159  GLN159      0.1698
     27  C         33.4790   31.4700    2.2970 C.2   159  GLN159      0.2592
     28  O         34.2240   30.6840    2.8930 O.2   159  GLN159     -0.2718
     29  CB        33.3080   33.5870    3.6450 C.3   159  GLN159      0.0381
     30  CG        33.8700   32.8940    4.8820 C.3   159  GLN159      0.0905
     31  CD        35.3840   33.0460    5.0240 C.2   159  GLN159      0.2608
     32  OE1       35.8830   34.1160    5.3650 O.2   159  GLN159     -0.2717
     33  NE2       36.1150   31.9720    4.7530 N.am  159  GLN159     -0.0878
     34  N         32.4010   31.0650    1.6290 N.am  160  MET160     -0.1979
     35  CA        32.0560   29.6490    1.5360 C.3   160  MET160      0.1605
     36  C         30.8040   29.4390    0.6940 C.2   160  MET160      0.2287
     37  O         30.0680   30.3730    0.4160 O.2   160  MET160     -0.2864
     38  CB        31.8120   29.0480    2.9250 C.3   160  MET160      0.0413
     39  CG        30.4240   29.3370    3.4610 C.3   160  MET160      0.0598
     40  SD        30.4330   30.2470    5.0030 S.3   160  MET160     -0.1393
     41  CE        29.3570   29.1800    5.9780 C.3   160  MET160      0.0692
     42  N         27.9060   32.4200    0.1510 N.3   173  TYR173     -0.1241
     43  CA        28.0230   33.2660    1.3300 C.3   173  TYR173      0.1605
     44  C         29.0430   34.3800    1.1090 C.2   173  TYR173      0.2264
     45  O         30.2390   34.1820    1.2980 O.2   173  TYR173     -0.2867
     46  CB        28.3770   32.4200    2.5650 C.3   173  TYR173      0.0534
     47  CG        27.3430   31.3470    2.8900 C.ar  173  TYR173     -0.0201
     48  CD1       27.3390   30.1150    2.2290 C.ar  173  TYR173     -0.0009
     49  CD2       26.3400   31.5880    3.8260 C.ar  173  TYR173     -0.0009
     50  CE1       26.3520   29.1500    2.4960 C.ar  173  TYR173      0.0417
     51  CE2       25.3550   30.6420    4.0940 C.ar  173  TYR173      0.0417
     52  CZ        25.3600   29.4320    3.4330 C.ar  173  TYR173      0.1957
     53  OH        24.3580   28.5220    3.7020 O.3   173  TYR173     -0.2866
     54  N         26.8180   40.5850    8.6570 N.3   211  PHE211     -0.1227
     55  CA        28.2360   40.2950    8.4470 C.3   211  PHE211      0.1736
     56  C         28.3490   39.3630    7.2420 C.2   211  PHE211      0.2596
     57  O         29.4220   39.1780    6.6850 O.2   211  PHE211     -0.2718
     58  CB        28.8620   39.6410    9.6950 C.3   211  PHE211      0.0547
     59  CG        28.5000   38.1920    9.8870 C.ar  211  PHE211     -0.0202
     60  CD1       29.3840   37.1860    9.5090 C.ar  211  PHE211     -0.0042
     61  CD2       27.2910   37.8340   10.4710 C.ar  211  PHE211     -0.0042
     62  CE1       29.0710   35.8460    9.7170 C.ar  211  PHE211     -0.0003
     63  CE2       26.9650   36.5010   10.6830 C.ar  211  PHE211     -0.0003
     64  CZ        27.8580   35.5000   10.3060 C.ar  211  PHE211     -0.0000
     65  N         27.2220   38.7860    6.8380 N.am  212  SER212     -0.1952
     66  CA        27.1920   37.8740    5.6980 C.3   212  SER212      0.1924
     67  C         25.8600   37.9880    4.9740 C.2   212  SER212      0.2314
     68  O         24.8330   38.2020    5.6100 O.2   212  SER212     -0.2863
     69  CB        27.3750   36.4340    6.1700 C.3   212  SER212      0.2116
     70  OG        27.2240   35.5210    5.0930 O.3   212  SER212     -0.2180
     71  N         23.6790   35.9520    1.7490 N.3   214  TYR214     -0.1241
     72  CA        23.7030   34.8170    0.8240 C.3   214  TYR214      0.1605
     73  C         22.4770   34.5340   -0.0190 C.2   214  TYR214      0.2264
     74  O         21.3830   34.3370    0.4920 O.2   214  TYR214     -0.2867
     75  CB        24.1190   33.4990    1.5220 C.3   214  TYR214      0.0534
     76  CG        23.3610   33.0720    2.7740 C.ar  214  TYR214     -0.0201
     77  CD1       22.5080   31.9590    2.7690 C.ar  214  TYR214     -0.0009
     78  CD2       23.5930   33.7100    3.9920 C.ar  214  TYR214     -0.0009
     79  CE1       21.9130   31.4870    3.9670 C.ar  214  TYR214      0.0417
     80  CE2       23.0160   33.2580    5.1780 C.ar  214  TYR214      0.0417
     81  CZ        22.1860   32.1560    5.1650 C.ar  214  TYR214      0.1957
     82  OH        21.6540   31.7340    6.3600 O.3   214  TYR214     -0.2866
     83  N         22.6000   37.6450    7.3190 N.3   230  ALA230     -0.1245
     84  CA        22.9160   37.0510    8.6170 C.3   230  ALA230      0.1562
     85  C         23.5840   38.0390    9.5800 C.2   230  ALA230      0.2260
     86  O         24.4020   38.8570    9.1750 O.2   230  ALA230     -0.2867
     87  CB        23.8140   35.8250    8.4200 C.3   230  ALA230      0.0290
     88  N         23.3320   33.6030   15.6630 N.3   269  VAL269     -0.1245
     89  CA        23.3940   34.1200   14.2980 C.3   269  VAL269      0.1561
     90  C         21.9720   34.1810   13.7750 C.2   269  VAL269      0.2260
     91  O         21.3300   33.1540   13.5680 O.2   269  VAL269     -0.2867
     92  CB        24.2430   33.2360   13.3710 C.3   269  VAL269      0.0252
     93  CG1       24.0090   33.6280   11.9110 C.3   269  VAL269      0.0019
     94  CG2       25.7030   33.4190   13.6990 C.3   269  VAL269      0.0019
     95  N         20.2650   30.5270   14.5820 N.3   284  GLY284     -0.1225
     96  CA        21.1420   29.4220   14.8930 C.3   284  GLY284      0.1811
     97  C         21.8240   29.6820   16.2180 C.2   284  GLY284      0.2280
     98  O         22.4020   30.7450   16.4180 O.2   284  GLY284     -0.2866
     99  N         24.7460   28.3970   18.4970 N.3   286  TYR286     -0.1241
    100  CA        25.9360   27.5690   18.5050 C.3   286  TYR286      0.1605
    101  C         26.0590   26.7340   19.7680 C.2   286  TYR286      0.2264
    102  O         25.9190   27.2400   20.8820 O.2   286  TYR286     -0.2867
    103  CB        27.1890   28.4340   18.3430 C.3   286  TYR286      0.0534
    104  CG        27.3620   29.0090   16.9550 C.ar  286  TYR286     -0.0201
    105  CD1       26.4050   29.8650   16.4090 C.ar  286  TYR286     -0.0009
    106  CD2       28.4690   28.6790   16.1750 C.ar  286  TYR286     -0.0009
    107  CE1       26.5450   30.3730   15.1190 C.ar  286  TYR286      0.0417
    108  CE2       28.6210   29.1820   14.8850 C.ar  286  TYR286      0.0417
    109  CZ        27.6540   30.0270   14.3650 C.ar  286  TYR286      0.1957
    110  OH        27.7890   30.5250   13.0900 O.3   286  TYR286     -0.2866
    111  N         34.3890   32.3800   15.6290 N.3   293  GLN293     -0.1245
    112  CA        33.1620   33.0350   16.0610 C.3   293  GLN293      0.1566
    113  C         33.4720   34.1180   17.0960 C.2   293  GLN293      0.2260
    114  O         32.8400   35.1780   17.1090 O.2   293  GLN293     -0.2867
    115  CB        32.1900   32.0020   16.6470 C.3   293  GLN293      0.0367
    116  CG        31.5500   31.0800   15.6030 C.3   293  GLN293      0.0905
    117  CD        32.5550   30.1740   14.9060 C.2   293  GLN293      0.2608
    118  OE1       32.4080   29.8600   13.7200 O.2   293  GLN293     -0.2717
    119  NE2       33.5760   29.7410   15.6420 N.am  293  GLN293     -0.0878
    120  N         34.4170   37.1080   15.1880 N.3   296  LEU296     -0.1245
    121  CA        33.2920   37.7320   14.4980 C.3   296  LEU296      0.1561
    122  C         32.4620   38.6020   15.4330 C.2   296  LEU296      0.2260
    123  O         31.9450   39.6460   15.0280 O.2   296  LEU296     -0.2867
    124  CB        32.4020   36.6630   13.8480 C.3   296  LEU296      0.0270
    125  CG        33.0210   35.9310   12.6500 C.3   296  LEU296      0.0019
    126  CD1       32.0840   34.8240   12.1640 C.3   296  LEU296      0.0001
    127  CD2       33.3070   36.9320   11.5370 C.3   296  LEU296      0.0001
@<TRIPOS>BOND
     1    73    74    2
     2    73    72    1
     3    42    43    1
     4    37    36    2
     5    36    35    1
     6    72    75    1
     7    72    71    1
     8    44    45    2
     9    44    43    1
    10    25    26    1
    11    43    46    1
    12    75    76    1
    13    35    34    1
    14    35    38    1
    15    34    27   am
    16    48    50   ar
    17    48    47   ar
    18    17    16    2
    19    27    26    1
    20    27    28    2
    21    26    29    1
    22    50    52   ar
    23    16    15    1
    24    46    47    1
    25    14    15    1
    26    77    76   ar
    27    77    79   ar
    28    76    78   ar
    29    47    49   ar
    30    38    39    1
    31    15    18    1
    32    52    53    1
    33    52    51   ar
    34    39    40    1
    35    29    30    1
    36    49    51   ar
    37    79    81   ar
    38    78    80   ar
    39    18    19    1
    40    33    31   am
    41    30    31    1
    42    67    68    2
    43    67    66    1
    44    40    41    1
    45    31    32    2
    46    70    69    1
    47    81    80   ar
    48    81    82    1
    49    19    20   ar
    50    19    21   ar
    51    20    22   ar
    52    66    69    1
    53    66    65    1
    54    21    23   ar
    55    22    24   ar
    56    57    56    2
    57    65    56   am
    58    23    24   ar
    59    56    55    1
    60    83    84    1
    61    87    84    1
    62    55    54    1
    63    55    58    1
    64    84    85    1
    65    86    85    2
    66    60    62   ar
    67    60    59   ar
    68    58    59    1
    69    62    64   ar
    70    59    61   ar
    71    64    63   ar
    72    61    63   ar
    73   127   125    1
    74    93    92    1
    75   126   125    1
    76    12    13    1
    77    12     9    1
    78   125   124    1
    79   110   109    1
    80    11    10    2
    81    92    94    1
    82    92    89    1
    83    91    90    2
    84    10     9    1
    85   118   117    2
    86    90    89    1
    87   124   121    1
    88     9     8    1
    89     7     5    1
    90     5     6    1
    91     5     2    1
    92    89    88    1
    93   109   108   ar
    94   109   107   ar
    95   121   120    1
    96   121   122    1
    97    95    96    1
    98     4     3    2
    99   108   106   ar
   100    96    97    1
   101   117   116    1
   102   117   119   am
   103   123   122    2
   104   107   105   ar
   105     1     2    1
   106     3     2    1
   107   116   115    1
   108   111   112    1
   109   112   115    1
   110   112   113    1
   111   106   104   ar
   112    97    98    2
   113   105   104   ar
   114   104   103    1
   115   113   114    2
   116   103   100    1
   117    99   100    1
   118   100   101    1
   119   101   102    2
