@<TRIPOS>MOLECULE
tmp/1zbdA00.pdb
 183 180 0 0 0
SMALL
GASTEIGER

@<TRIPOS>ATOM
      1  N          9.4540   17.2860   13.3820 N.3    14  SER14      -0.1202
      2  CA         8.7390   16.6200   12.3040 C.3    14  SER14       0.2020
      3  C          8.2840   17.6310   11.2420 C.2    14  SER14       0.2619
      4  O          7.9150   18.7620   11.5650 O.2    14  SER14      -0.2717
      5  CB         7.5240   15.8810   12.8690 C.3    14  SER14       0.2103
      6  OG         6.8460   15.1700   11.8500 O.3    14  SER14      -0.2182
      7  N          8.3260   17.2100    9.9790 N.am   15  SER15      -0.1937
      8  CA         7.9150   18.0360    8.8400 C.3    15  SER15       0.2055
      9  C          8.8900   19.1190    8.4030 C.2    15  SER15       0.2643
     10  O          8.6020   19.8600    7.4610 O.2    15  SER15      -0.2714
     11  CB         6.5550   18.6870    9.1080 C.3    15  SER15       0.2130
     12  OG         5.5160   17.7270    9.0790 O.3    15  SER15      -0.2179
     13  N         10.0290   19.2400    9.0760 N.am   16  VAL16      -0.1963
     14  CA        10.9910   20.2560    8.6690 C.3    16  VAL16       0.1727
     15  C         11.6130   19.8760    7.3240 C.2    16  VAL16       0.2617
     16  O         12.1740   20.7250    6.6310 O.2    16  VAL16      -0.2715
     17  CB        12.1130   20.4390    9.7100 C.3    16  VAL16       0.0290
     18  CG1       11.5270   20.9660   11.0120 C.3    16  VAL16       0.0023
     19  CG2       12.8350   19.1190    9.9340 C.3    16  VAL16       0.0023
     20  N         11.5090   18.5980    6.9610 N.am   17  GLY17      -0.1940
     21  CA        12.0520   18.1370    5.6930 C.3    17  GLY17       0.2014
     22  C         13.3550   17.3630    5.7950 C.2    17  GLY17       0.2639
     23  O         14.2380   17.5150    4.9550 O.2    17  GLY17      -0.2714
     24  N         13.4810   16.5290    6.8190 N.am   18  LYS18      -0.1963
     25  CA        14.6940   15.7470    7.0050 C.3    18  LYS18       0.1728
     26  C         14.8140   14.6740    5.9310 C.2    18  LYS18       0.2617
     27  O         15.8320   14.5890    5.2430 O.2    18  LYS18      -0.2715
     28  CB        14.7160   15.1190    8.4070 C.3    18  LYS18       0.0311
     29  CG        14.7960   16.1610    9.5280 C.3    18  LYS18       0.0038
     30  CD        14.9790   15.5460   10.9050 C.3    18  LYS18       0.0206
     31  CE        13.8160   14.6540   11.2780 C.3    18  LYS18       0.1093
     32  NZ        12.5420   15.4070   11.3160 N.3    18  LYS18      -0.1314
     33  N         13.7690   13.8700    5.7750 N.am   19  THR19      -0.1937
     34  CA        13.7700   12.8110    4.7700 C.3    19  THR19       0.2028
     35  C         13.9520   13.3500    3.3540 C.2    19  THR19       0.2642
     36  O         14.7190   12.8040    2.5680 O.2    19  THR19      -0.2714
     37  CB        12.4620   12.0230    4.7850 C.3    19  THR19       0.1808
     38  OG1       12.3320   11.3150    6.0250 O.3    19  THR19      -0.2208
     39  CG2       12.4380   11.0480    3.6220 C.3    19  THR19       0.0379
     40  N         13.2230   14.4120    3.0310 N.am   20  SER20      -0.1949
     41  CA        13.3060   15.0180    1.7100 C.3    20  SER20       0.1924
     42  C         14.7420   15.3790    1.4150 C.2    20  SER20       0.2314
     43  O         15.2460   15.1170    0.3230 O.2    20  SER20      -0.2863
     44  CB        12.4520   16.2890    1.6430 C.3    20  SER20       0.2116
     45  OG        11.0850   15.9990    1.8690 O.3    20  SER20      -0.2180
     46  N         12.1790   14.5940   -5.1530 N.3    30  PHE30      -0.1227
     47  CA        11.3250   15.3070   -4.2050 C.3    30  PHE30       0.1736
     48  C          9.8720   14.8530   -4.3470 C.2    30  PHE30       0.2596
     49  O          9.4180   14.5390   -5.4460 O.2    30  PHE30      -0.2718
     50  CB        11.4230   16.8190   -4.4440 C.3    30  PHE30       0.0547
     51  CG        10.5820   17.6380   -3.5090 C.ar   30  PHE30      -0.0202
     52  CD1       10.8110   17.6050   -2.1370 C.ar   30  PHE30      -0.0042
     53  CD2        9.5610   18.4450   -3.9990 C.ar   30  PHE30      -0.0042
     54  CE1       10.0350   18.3660   -1.2660 C.ar   30  PHE30      -0.0003
     55  CE2        8.7790   19.2100   -3.1370 C.ar   30  PHE30      -0.0003
     56  CZ         9.0170   19.1700   -1.7680 C.ar   30  PHE30      -0.0000
     57  N          9.1460   14.8190   -3.2350 N.am   31  THR31      -0.1939
     58  CA         7.7470   14.4020   -3.2470 C.3    31  THR31       0.2013
     59  C          6.9120   15.2050   -2.2610 C.2    31  THR31       0.2484
     60  O          6.9750   14.9810   -1.0530 O.2    31  THR31      -0.2729
     61  CB         7.6060   12.9160   -2.8920 C.3    31  THR31       0.1807
     62  OG1        8.2070   12.1280   -3.9250 O.3    31  THR31      -0.2208
     63  CG2        6.1330   12.5360   -2.7400 C.3    31  THR31       0.0379
     64  N          6.1070   16.1460   -2.7710 N.am   32  PRO32      -0.2715
     65  CA         5.2470   17.0000   -1.9480 C.3    32  PRO32       0.1536
     66  C          4.4560   16.2570   -0.8740 C.2    32  PRO32       0.2598
     67  O          3.9330   16.8730    0.0510 O.2    32  PRO32      -0.2715
     68  CB         4.3470   17.6670   -2.9820 C.3    32  PRO32       0.0310
     69  CG         5.2760   17.8360   -4.1450 C.3    32  PRO32       0.0237
     70  CD         5.9600   16.4820   -4.1990 C.3    32  PRO32       0.0939
     71  N          4.3700   14.9370   -0.9940 N.am   33  ALA33      -0.1964
     72  CA         3.6380   14.1420   -0.0150 C.3    33  ALA33       0.1728
     73  C          4.3590   14.1700    1.3320 C.2    33  ALA33       0.2616
     74  O          5.5440   14.4900    1.3990 O.2    33  ALA33      -0.2715
     75  CB         3.4920   12.7040   -0.5110 C.3    33  ALA33       0.0334
     76  N          3.6420   13.8410    2.4030 N.am   34  PHE34      -0.1960
     77  CA         4.2310   13.8390    3.7360 C.3    34  PHE34       0.1771
     78  C          3.9820   12.5340    4.4910 C.2    34  PHE34       0.2619
     79  O          2.9460   12.3590    5.1360 O.2    34  PHE34      -0.2715
     80  CB         3.6880   15.0100    4.5650 C.3    34  PHE34       0.0574
     81  CG         4.1240   14.9880    6.0140 C.ar   34  PHE34      -0.0200
     82  CD1        5.3050   14.3510    6.4010 C.ar   34  PHE34      -0.0042
     83  CD2        3.3390   15.5840    6.9930 C.ar   34  PHE34      -0.0042
     84  CE1        5.6930   14.3050    7.7400 C.ar   34  PHE34      -0.0003
     85  CE2        3.7190   15.5430    8.3370 C.ar   34  PHE34      -0.0003
     86  CZ         4.8980   14.9000    8.7100 C.ar   34  PHE34      -0.0000
     87  N          4.9490   11.6280    4.4250 N.am   35  VAL35      -0.1963
     88  CA         4.8330   10.3540    5.1200 C.3    35  VAL35       0.1727
     89  C          5.7890   10.3690    6.3090 C.2    35  VAL35       0.2617
     90  O          6.9840   10.1000    6.1610 O.2    35  VAL35      -0.2715
     91  CB         5.1910    9.1760    4.1870 C.3    35  VAL35       0.0290
     92  CG1        4.8660    7.8540    4.8640 C.3    35  VAL35       0.0023
     93  CG2        4.4370    9.3100    2.8730 C.3    35  VAL35       0.0023
     94  N          5.2630   10.7000    7.4850 N.am   36  SER36      -0.1936
     95  CA         6.0830   10.7530    8.6870 C.3    36  SER36       0.2055
     96  C          6.8730    9.4580    8.8250 C.2    36  SER36       0.2643
     97  O          6.3270    8.3650    8.6580 O.2    36  SER36      -0.2714
     98  CB         5.2110   10.9710    9.9280 C.3    36  SER36       0.2130
     99  OG         6.0110   11.1360   11.0910 O.3    36  SER36      -0.2179
    100  N          8.1630    9.5970    9.1230 N.am   37  THR37      -0.1950
    101  CA         9.0630    8.4620    9.2770 C.3    37  THR37       0.1897
    102  C          8.7770    7.6580   10.5460 C.2    37  THR37       0.2313
    103  O          8.5230    8.2200   11.6150 O.2    37  THR37      -0.2863
    104  CB        10.5250    8.9420    9.3070 C.3    37  THR37       0.1794
    105  OG1       10.8200    9.6420    8.0930 O.3    37  THR37      -0.2208
    106  CG2       11.4770    7.7640    9.4620 C.3    37  THR37       0.0378
    107  N         18.1110    8.8130    8.8130 N.3    60  ASP60      -0.1225
    108  CA        17.0010    9.7500    8.8150 C.3    60  ASP60       0.1805
    109  C         16.1670    9.4020   10.0430 C.2    60  ASP60       0.2598
    110  O         15.5990    8.3150   10.1270 O.2    60  ASP60      -0.2718
    111  CB        16.1900    9.5640    7.5290 C.3    60  ASP60       0.1424
    112  CG        14.9370   10.4090    7.4920 C.2    60  ASP60       0.3668
    113  OD1       15.0250   11.6330    7.7280 O.co2  60  ASP60      -0.2456
    114  OD2       13.8590    9.8440    7.2120 O.co2  60  ASP60      -0.2456
    115  N         16.1050   10.3220   10.9990 N.am   61  THR61      -0.1939
    116  CA        15.3660   10.0810   12.2350 C.3    61  THR61       0.2028
    117  C         13.9720   10.6920   12.2720 C.2    61  THR61       0.2642
    118  O         13.6830   11.6640   11.5710 O.2    61  THR61      -0.2714
    119  CB        16.1410   10.6240   13.4400 C.3    61  THR61       0.1808
    120  OG1       16.3130   12.0390   13.2940 O.3    61  THR61      -0.2208
    121  CG2       17.5020    9.9690   13.5340 C.3    61  THR61       0.0379
    122  N         13.1110   10.1160   13.1060 N.am   62  ALA62      -0.1963
    123  CA        11.7460   10.6060   13.2600 C.3    62  ALA62       0.1728
    124  C         11.7910   11.8130   14.1820 C.2    62  ALA62       0.2617
    125  O         12.4200   11.7680   15.2340 O.2    62  ALA62      -0.2715
    126  CB        10.8610    9.5260   13.8600 C.3    62  ALA62       0.0334
    127  N         11.1240   12.8900   13.7840 N.am   63  GLY63      -0.1940
    128  CA        11.1250   14.0930   14.5950 C.3    63  GLY63       0.2014
    129  C         10.1530   14.0690   15.7600 C.2    63  GLY63       0.2638
    130  O         10.3900   14.7180   16.7780 O.2    63  GLY63      -0.2714
    131  N          9.0630   13.3200   15.6150 N.am   64  LEU64      -0.1977
    132  CA         8.0500   13.2330   16.6620 C.3    64  LEU64       0.1596
    133  C          8.6030   12.7370   17.9910 C.2    64  LEU64       0.2287
    134  O          9.3700   11.7760   18.0430 O.2    64  LEU64      -0.2864
    135  CB         6.8970   12.3370   16.2040 C.3    64  LEU64       0.0297
    136  CG         6.0970   12.8820   15.0150 C.3    64  LEU64       0.0022
    137  CD1        5.0590   11.8650   14.5690 C.3    64  LEU64       0.0001
    138  CD2        5.4310   14.1920   15.4150 C.3    64  LEU64       0.0001
    139  N         15.9250   24.7910    6.3830 N.3   116  ASN116     -0.1225
    140  CA        15.3520   24.2800    5.1380 C.3   116  ASN116      0.1785
    141  C         14.1370   25.0200    4.5840 C.2   116  ASN116      0.2597
    142  O         13.4780   25.7870    5.2860 O.2   116  ASN116     -0.2718
    143  CB        14.9920   22.8080    5.3180 C.3   116  ASN116      0.1169
    144  CG        14.7120   22.1160    4.0070 C.2   116  ASN116      0.2627
    145  OD1       15.4470   22.2930    3.0370 O.2   116  ASN116     -0.2716
    146  ND2       13.6560   21.3090    3.9720 N.am  116  ASN116     -0.0877
    147  N         13.8500   24.7580    3.3090 N.am  117  LYS117     -0.1980
    148  CA        12.7300   25.3600    2.5940 C.3   117  LYS117      0.1596
    149  C         12.9490   26.8320    2.2620 C.2   117  LYS117      0.2287
    150  O         11.9990   27.6070    2.2480 O.2   117  LYS117     -0.2864
    151  CB        11.4360   25.2160    3.3980 C.3   117  LYS117      0.0298
    152  CG        11.1760   23.8060    3.8910 C.3   117  LYS117      0.0038
    153  CD         9.7440   23.6600    4.3630 C.3   117  LYS117      0.0206
    154  CE         9.4450   22.2400    4.8140 C.3   117  LYS117      0.1093
    155  NZ         8.0180   22.0890    5.2140 N.3   117  LYS117     -0.1314
    156  N         13.0540   28.1520   -0.2600 N.3   119  ASP119     -0.1239
    157  CA        12.4110   28.4060   -1.5470 C.3   119  ASP119      0.1674
    158  C         11.1000   29.1300   -1.2600 C.2   119  ASP119      0.2266
    159  O         10.6080   29.9030   -2.0810 O.2   119  ASP119     -0.2867
    160  CB        12.1260   27.0890   -2.2810 C.3   119  ASP119      0.1410
    161  CG        11.4430   26.0540   -1.3890 C.2   119  ASP119      0.3668
    162  OD1       12.0710   25.6110   -0.4020 O.co2 119  ASP119     -0.2456
    163  OD2       10.2830   25.6790   -1.6670 O.co2 119  ASP119     -0.2456
    164  N         17.2420   24.1960    0.4480 N.3   145  SER145     -0.1202
    165  CA        15.9370   23.6750    0.0780 C.3   145  SER145      0.2020
    166  C         16.0340   22.3190   -0.6070 C.2   145  SER145      0.2619
    167  O         16.7150   22.1690   -1.6230 O.2   145  SER145     -0.2717
    168  CB        15.2170   24.6520   -0.8580 C.3   145  SER145      0.2103
    169  OG        14.1070   24.0240   -1.4830 O.3   145  SER145     -0.2182
    170  N         15.3400   21.3360   -0.0450 N.am  146  ALA146     -0.1965
    171  CA        15.3140   20.0000   -0.6080 C.3   146  ALA146      0.1728
    172  C         14.6370   20.0960   -1.9710 C.2   146  ALA146      0.2616
    173  O         15.2370   19.7770   -2.9990 O.2   146  ALA146     -0.2715
    174  CB        14.5280   19.0670    0.3030 C.3   146  ALA146      0.0334
    175  N         13.3870   20.5570   -1.9580 N.am  147  LYS147     -0.1977
    176  CA        12.5620   20.7160   -3.1580 C.3   147  LYS147      0.1596
    177  C         13.2920   21.2580   -4.3820 C.2   147  LYS147      0.2287
    178  O         13.2320   20.6600   -5.4550 O.2   147  LYS147     -0.2864
    179  CB        11.3710   21.6230   -2.8420 C.3   147  LYS147      0.0298
    180  CG        10.5500   22.0440   -4.0460 C.3   147  LYS147      0.0038
    181  CD         9.4230   22.9850   -3.6350 C.3   147  LYS147      0.0206
    182  CE         8.6190   23.4690   -4.8380 C.3   147  LYS147      0.1093
    183  NZ         7.4410   24.2940   -4.4350 N.3   147  LYS147     -0.1314
@<TRIPOS>BOND
     1   178   177    2
     2    49    48    2
     3    46    47    1
     4   182   183    1
     5   182   181    1
     6    50    47    1
     7    50    51    1
     8   177   176    1
     9    48    47    1
    10    48    57   am
    11    70    69    1
    12    70    64    1
    13    69    68    1
    14   180   181    1
    15   180   179    1
    16    53    51   ar
    17    53    55   ar
    18    62    61    1
    19    51    52   ar
    20    58    57    1
    21    58    61    1
    22    58    59    1
    23   176   179    1
    24   176   175    1
    25    55    56   ar
    26   173   172    2
    27    68    65    1
    28    61    63    1
    29    64    59   am
    30    64    65    1
    31   160   157    1
    32   160   161    1
    33    59    60    2
    34    52    54   ar
    35   159   158    2
    36   172   175   am
    37   172   171    1
    38    65    66    1
    39    56    54   ar
    40   163   161   ar
    41   167   166    2
    42   157   158    1
    43   157   156    1
    44   169   168    1
    45   161   162   ar
    46    71    66   am
    47    71    72    1
    48    66    67    2
    49   168   165    1
    50   171   170    1
    51   171   174    1
    52   166   170   am
    53   166   165    1
    54    75    72    1
    55    72    73    1
    56   165   164    1
    57    43    42    2
    58    73    74    2
    59    73    76   am
    60    42    41    1
    61    44    41    1
    62    44    45    1
    63    41    40    1
    64   150   149    2
    65   149   148    1
    66    76    77    1
    67    36    35    2
    68   148   147    1
    69   148   151    1
    70    93    91    1
    71    40    35   am
    72   145   144    2
    73   147   141   am
    74    35    34    1
    75   151   152    1
    76    39    37    1
    77    77    78    1
    78    77    80    1
    79   152   153    1
    80   146   144   am
    81   144   143    1
    82    91    92    1
    83    91    88    1
    84   153   154    1
    85    87    78   am
    86    87    88    1
    87    78    79    2
    88    80    81    1
    89   141   140    1
    90   141   142    2
    91    34    37    1
    92    34    33    1
    93    37    38    1
    94   154   155    1
    95    23    22    2
    96    88    89    1
    97   140   143    1
    98   140   139    1
    99    27    26    2
   100    21    22    1
   101    21    20    1
   102    33    26   am
   103    22    24   am
   104    26    25    1
   105    81    82   ar
   106    81    83   ar
   107    90    89    2
   108    89    94   am
   109    82    84   ar
   110    16    15    2
   111    24    25    1
   112    20    15   am
   113    83    85   ar
   114    25    28    1
   115   114   112   ar
   116    15    14    1
   117    10     9    2
   118    94    95    1
   119   112   111    1
   120   112   113   ar
   121   111   108    1
   122    84    86   ar
   123   105   104    1
   124    85    86   ar
   125     9     8    1
   126     9    13   am
   127    28    29    1
   128    97    96    2
   129    14    13    1
   130    14    17    1
   131    95    96    1
   132    95    98    1
   133   107   108    1
   134   108   109    1
   135    96   100   am
   136     8    11    1
   137     8     7    1
   138    12    11    1
   139   100   101    1
   140   101   104    1
   141   101   102    1
   142   104   106    1
   143    29    30    1
   144    17    19    1
   145    17    18    1
   146    98    99    1
   147     7     3   am
   148   109   110    2
   149   109   115   am
   150   102   103    2
   151    30    31    1
   152   115   116    1
   153     3     4    2
   154     3     2    1
   155    31    32    1
   156   118   117    2
   157     6     5    1
   158   116   117    1
   159   116   119    1
   160   117   122   am
   161     2     5    1
   162     2     1    1
   163   122   123    1
   164   123   126    1
   165   123   124    1
   166   120   119    1
   167   119   121    1
   168   127   124   am
   169   127   128    1
   170   124   125    2
   171   137   136    1
   172   128   129    1
   173   136   138    1
   174   136   135    1
   175   131   129   am
   176   131   132    1
   177   129   130    2
   178   135   132    1
   179   132   133    1
   180   133   134    2
