@<TRIPOS>MOLECULE
tmp/1zbuB00.pdb
 162 159 0 0 0
SMALL
GASTEIGER

@<TRIPOS>ATOM
      1  N         78.6850  -75.9040  -57.3890 N.3    87  ASP87      -0.1225
      2  CA        77.5260  -75.1670  -56.9120 C.3    87  ASP87       0.1805
      3  C         76.4250  -75.1960  -57.9720 C.2    87  ASP87       0.2598
      4  O         76.3780  -74.3200  -58.8270 O.2    87  ASP87      -0.2718
      5  CB        77.9330  -73.7230  -56.5970 C.3    87  ASP87       0.1424
      6  CG        76.9470  -73.0200  -55.6790 C.2    87  ASP87       0.3668
      7  OD1       77.3260  -72.0410  -54.9960 O.co2  87  ASP87      -0.2456
      8  OD2       75.7720  -73.4310  -55.6270 O.co2  87  ASP87      -0.2456
      9  N         75.5420  -76.1910  -57.9150 N.am   88  PHE88      -0.1962
     10  CA        74.4840  -76.3450  -58.9260 C.3    88  PHE88       0.1771
     11  C         73.4630  -75.2130  -58.9740 C.2    88  PHE88       0.2619
     12  O         73.1800  -74.5770  -57.9630 O.2    88  PHE88      -0.2715
     13  CB        73.6890  -77.6220  -58.6820 C.3    88  PHE88       0.0574
     14  CG        74.4970  -78.8670  -58.7380 C.ar   88  PHE88      -0.0200
     15  CD1       75.2160  -79.1960  -59.8780 C.ar   88  PHE88      -0.0042
     16  CD2       74.4960  -79.7400  -57.6650 C.ar   88  PHE88      -0.0042
     17  CE1       75.9500  -80.3610  -59.9340 C.ar   88  PHE88      -0.0003
     18  CE2       75.2240  -80.9060  -57.7060 C.ar   88  PHE88      -0.0003
     19  CZ        75.9560  -81.2210  -58.8440 C.ar   88  PHE88      -0.0000
     20  N         72.8960  -74.9910  -60.1540 N.am   89  GLU89      -0.1963
     21  CA        71.6570  -74.2290  -60.2870 C.3    89  GLU89       0.1733
     22  C         70.5490  -75.1880  -60.7130 C.2    89  GLU89       0.2616
     23  O         70.8110  -76.1670  -61.4150 O.2    89  GLU89      -0.2715
     24  CB        71.8060  -73.1130  -61.3200 C.3    89  GLU89       0.0429
     25  CG        72.8260  -72.0340  -60.9720 C.3    89  GLU89       0.1163
     26  CD        72.5800  -71.3660  -59.6240 C.2    89  GLU89       0.3649
     27  OE1       71.4020  -71.2260  -59.2130 O.co2  89  GLU89      -0.2457
     28  OE2       73.5750  -70.9600  -58.9820 O.co2  89  GLU89      -0.2457
     29  N         69.3170  -74.9090  -60.3010 N.am   90  ALA90      -0.1963
     30  CA        68.2190  -75.8380  -60.5280 C.3    90  ALA90       0.1728
     31  C         66.9230  -75.1380  -60.8900 C.2    90  ALA90       0.2617
     32  O         66.7270  -73.9780  -60.5490 O.2    90  ALA90      -0.2715
     33  CB        68.0090  -76.6970  -59.2960 C.3    90  ALA90       0.0334
     34  N         66.0310  -75.8460  -61.5780 N.am   91  THR91      -0.1937
     35  CA        64.6620  -75.3740  -61.7660 C.3    91  THR91       0.2028
     36  C         64.0230  -75.0540  -60.4050 C.2    91  THR91       0.2642
     37  O         64.2990  -75.7290  -59.4050 O.2    91  THR91      -0.2714
     38  CB        63.7900  -76.4130  -62.5020 C.3    91  THR91       0.1808
     39  OG1       63.6060  -77.5730  -61.6810 O.3    91  THR91      -0.2208
     40  CG2       64.4320  -76.8340  -63.8030 C.3    91  THR91       0.0379
     41  N         63.1770  -74.0270  -60.3690 N.am   92  CYS92      -0.1953
     42  CA        62.5490  -73.5930  -59.1160 C.3    92  CYS92       0.1843
     43  C         61.3530  -72.6770  -59.3550 C.2    92  CYS92       0.2625
     44  O         61.1210  -72.2380  -60.4850 O.2    92  CYS92      -0.2714
     45  CB        63.5700  -72.8620  -58.2580 C.3    92  CYS92       0.0997
     46  SG        64.2590  -71.4580  -59.1180 S.3    92  CYS92      -0.0797
     47  N         60.6150  -72.3810  -58.2830 N.am   93  GLU93      -0.1977
     48  CA        59.3980  -71.5660  -58.3810 C.3    93  GLU93       0.1602
     49  C         59.2260  -70.5900  -57.2420 C.2    93  GLU93       0.2287
     50  O         59.6780  -70.8360  -56.1240 O.2    93  GLU93      -0.2864
     51  CB        58.1460  -72.4380  -58.4310 C.3    93  GLU93       0.0415
     52  CG        58.2660  -73.6220  -59.3210 C.3    93  GLU93       0.1163
     53  CD        57.0800  -73.7580  -60.2090 C.2    93  GLU93       0.3649
     54  OE1       57.1980  -73.3300  -61.3850 O.co2  93  GLU93      -0.2457
     55  OE2       56.0380  -74.2690  -59.7300 O.co2  93  GLU93      -0.2457
     56  N         57.8660  -68.7300  -54.1710 N.3    95  GLY95      -0.1210
     57  CA        57.2600  -69.3260  -52.9870 C.3    95  GLY95       0.1956
     58  C         57.8460  -70.6890  -52.6690 C.2    95  GLY95       0.2611
     59  O         57.4380  -71.3310  -51.6930 O.2    95  GLY95      -0.2717
     60  N         58.7810  -71.1350  -53.5140 N.am   96  ASN96      -0.1974
     61  CA        59.5790  -72.3260  -53.2610 C.3    96  ASN96       0.1688
     62  C         58.7520  -73.4840  -52.7050 C.2    96  ASN96       0.2292
     63  O         58.9930  -73.9050  -51.5710 O.2    96  ASN96      -0.2864
     64  CB        60.6740  -71.9510  -52.2770 C.3    96  ASN96       0.1181
     65  CG        61.7460  -72.9950  -52.1720 C.2    96  ASN96       0.2629
     66  OD1       62.5450  -73.1840  -53.0940 O.2    96  ASN96      -0.2716
     67  ND2       61.7920  -73.6740  -51.0300 N.am   96  ASN96      -0.0877
     68  N         62.7750  -80.5850  -58.4230 N.3   102  HIS102     -0.1241
     69  CA        63.9090  -79.7990  -58.9340 C.3   102  HIS102      0.1621
     70  C         64.7000  -80.5890  -59.9630 C.2   102  HIS102      0.2264
     71  O         64.7170  -81.8130  -59.9180 O.2   102  HIS102     -0.2867
     72  CB        64.8110  -79.3510  -57.7820 C.3   102  HIS102      0.0745
     73  CG        64.1180  -78.4630  -56.7970 C.ar  102  HIS102      0.0817
     74  ND1       64.0460  -77.0960  -56.9520 N.ar  102  HIS102     -0.2268
     75  CD2       63.4280  -78.7500  -55.6680 C.ar  102  HIS102      0.1154
     76  CE1       63.3600  -76.5760  -55.9490 C.ar  102  HIS102      0.1986
     77  NE2       62.9680  -77.5590  -55.1580 N.ar  102  HIS102     -0.2212
     78  N         60.2830  -66.7330  -62.5240 N.3   138  PHE138     -0.1241
     79  CA        61.0090  -66.6470  -61.2650 C.3   138  PHE138      0.1605
     80  C         62.4080  -67.2390  -61.3900 C.2   138  PHE138      0.2264
     81  O         63.3950  -66.6300  -60.9530 O.2   138  PHE138     -0.2867
     82  CB        60.2540  -67.3560  -60.1440 C.3   138  PHE138      0.0534
     83  CG        60.9890  -67.3640  -58.8400 C.ar  138  PHE138     -0.0203
     84  CD1       60.8580  -66.3080  -57.9490 C.ar  138  PHE138     -0.0042
     85  CD2       61.8290  -68.4240  -58.5060 C.ar  138  PHE138     -0.0042
     86  CE1       61.5480  -66.3090  -56.7320 C.ar  138  PHE138     -0.0003
     87  CE2       62.5320  -68.4370  -57.2940 C.ar  138  PHE138     -0.0003
     88  CZ        62.3870  -67.3800  -56.4040 C.ar  138  PHE138     -0.0000
     89  N         65.9270  -65.4060  -61.2480 N.3   142  LEU142     -0.1231
     90  CA        66.8270  -65.6770  -60.1260 C.3   142  LEU142      0.1693
     91  C         68.2140  -66.1580  -60.5620 C.2   142  LEU142      0.2592
     92  O         69.2190  -65.7210  -60.0050 O.2   142  LEU142     -0.2718
     93  CB        66.2150  -66.6810  -59.1400 C.3   142  LEU142      0.0284
     94  CG        67.1010  -67.0890  -57.9530 C.3   142  LEU142      0.0019
     95  CD1       66.9400  -66.1140  -56.8080 C.3   142  LEU142      0.0001
     96  CD2       66.7950  -68.5020  -57.4830 C.3   142  LEU142      0.0001
     97  N         68.2670  -67.0540  -61.5460 N.am  143  THR143     -0.1953
     98  CA        69.5340  -67.6650  -61.9720 C.3   143  THR143      0.1897
     99  C         70.1720  -66.9440  -63.1660 C.2   143  THR143      0.2313
    100  O         71.3870  -67.0220  -63.3750 O.2   143  THR143     -0.2863
    101  CB        69.3390  -69.1300  -62.3580 C.3   143  THR143      0.1794
    102  OG1       68.5080  -69.1980  -63.5210 O.3   143  THR143     -0.2208
    103  CG2       68.6870  -69.8980  -61.2350 C.3   143  THR143      0.0378
    104  N         78.7180  -75.1980  -50.9310 N.3   182  ASP182     -0.1239
    105  CA        78.1860  -74.1840  -50.0380 C.3   182  ASP182      0.1674
    106  C         76.9660  -74.7690  -49.3500 C.2   182  ASP182      0.2266
    107  O         75.8570  -74.5860  -49.8270 O.2   182  ASP182     -0.2867
    108  CB        77.7780  -72.9830  -50.8810 C.3   182  ASP182      0.1410
    109  CG        77.2570  -71.8200  -50.0640 C.2   182  ASP182      0.3668
    110  OD1       76.9560  -70.7870  -50.6940 O.co2 182  ASP182     -0.2456
    111  OD2       77.1420  -71.9040  -48.8170 O.co2 182  ASP182     -0.2456
    112  N         72.8540  -78.9910  -49.5410 N.3   185  TRP185     -0.1227
    113  CA        71.7890  -79.1750  -50.5270 C.3   185  TRP185      0.1737
    114  C         72.2440  -79.7470  -51.8880 C.2   185  TRP185      0.2595
    115  O         71.6550  -80.7060  -52.3690 O.2   185  TRP185     -0.2718
    116  CB        70.9730  -77.8840  -50.6700 C.3   185  TRP185      0.0564
    117  CG        69.7960  -77.7750  -49.6760 C.ar  185  TRP185      0.0003
    118  CD1       69.5980  -78.5180  -48.5220 C.ar  185  TRP185      0.0946
    119  CD2       68.6850  -76.8560  -49.7470 C.ar  185  TRP185      0.0152
    120  NE1       68.4320  -78.1220  -47.8900 N.ar  185  TRP185     -0.2442
    121  CE2       67.8550  -77.1060  -48.6120 C.ar  185  TRP185      0.0810
    122  CE3       68.3060  -75.8450  -50.6620 C.ar  185  TRP185      0.0012
    123  CZ2       66.6640  -76.3830  -48.3710 C.ar  185  TRP185      0.0191
    124  CZ3       67.1180  -75.1250  -50.4270 C.ar  185  TRP185      0.0001
    125  CH2       66.3110  -75.4020  -49.2860 C.ar  185  TRP185      0.0015
    126  N         73.2950  -79.1880  -52.4900 N.am  186  ASP186     -0.1974
    127  CA        73.7680  -79.6560  -53.8060 C.3   186  ASP186      0.1709
    128  C         73.9910  -81.1650  -53.9320 C.2   186  ASP186      0.2293
    129  O         73.5900  -81.7610  -54.9260 O.2   186  ASP186     -0.2864
    130  CB        75.0270  -78.9180  -54.2500 C.3   186  ASP186      0.1436
    131  CG        74.8240  -77.4330  -54.3210 C.2   186  ASP186      0.3671
    132  OD1       74.9850  -76.7990  -53.2610 O.co2 186  ASP186     -0.2456
    133  OD2       74.5070  -76.8980  -55.4080 O.co2 186  ASP186     -0.2456
    134  N         69.9860  -81.8580  -54.6070 N.3   189  PHE189     -0.1241
    135  CA        69.9950  -81.7170  -56.0710 C.3   189  PHE189      0.1605
    136  C         70.5470  -82.9040  -56.8680 C.2   189  PHE189      0.2264
    137  O         69.8100  -83.4780  -57.6670 O.2   189  PHE189     -0.2867
    138  CB        70.6070  -80.3910  -56.5150 C.3   189  PHE189      0.0534
    139  CG        69.8480  -79.2060  -56.0330 C.ar  189  PHE189     -0.0203
    140  CD1       68.4720  -79.1650  -56.1370 C.ar  189  PHE189     -0.0042
    141  CD2       70.5000  -78.1280  -55.4720 C.ar  189  PHE189     -0.0042
    142  CE1       67.7540  -78.0660  -55.6890 C.ar  189  PHE189     -0.0003
    143  CE2       69.7920  -77.0200  -55.0220 C.ar  189  PHE189     -0.0003
    144  CZ        68.4190  -76.9920  -55.1280 C.ar  189  PHE189     -0.0000
    145  N         73.5590  -66.2750  -57.8250 N.3   242  HIS242     -0.1241
    146  CA        72.7620  -67.4030  -58.3570 C.3   242  HIS242      0.1621
    147  C         73.1440  -67.8340  -59.7810 C.2   242  HIS242      0.2264
    148  O         72.4840  -68.6870  -60.3880 O.2   242  HIS242     -0.2867
    149  CB        71.2490  -67.1540  -58.2300 C.3   242  HIS242      0.0745
    150  CG        70.8350  -66.6520  -56.8820 C.ar  242  HIS242      0.0817
    151  ND1       70.8740  -67.4400  -55.7490 N.ar  242  HIS242     -0.2268
    152  CD2       70.3970  -65.4340  -56.4810 C.ar  242  HIS242      0.1154
    153  CE1       70.4720  -66.7310  -54.7100 C.ar  242  HIS242      0.1986
    154  NE2       70.1760  -65.5110  -55.1260 N.ar  242  HIS242     -0.2212
    155  N         79.2590  -68.1670  -58.2280 N.3   247  ASP247     -0.1239
    156  CA        79.1260  -68.5710  -56.8470 C.3   247  ASP247      0.1674
    157  C         80.2550  -69.5100  -56.5030 C.2   247  ASP247      0.2266
    158  O         80.9240  -69.3410  -55.4820 O.2   247  ASP247     -0.2867
    159  CB        77.7770  -69.2400  -56.6160 C.3   247  ASP247      0.1410
    160  CG        76.6460  -68.2360  -56.4440 C.2   247  ASP247      0.3668
    161  OD1       76.9110  -67.0610  -56.0880 O.co2 247  ASP247     -0.2456
    162  OD2       75.4790  -68.6260  -56.6590 O.co2 247  ASP247     -0.2456
@<TRIPOS>BOND
     1    40    38    1
     2   102   101    1
     3   100    99    2
     4    99    98    1
     5    78    79    1
     6    38    35    1
     7    38    39    1
     8   101    98    1
     9   101   103    1
    10    98    97    1
    11    35    34    1
    12    35    36    1
    13    34    31   am
    14    97    91   am
    15    23    22    2
    16    80    79    1
    17    80    81    2
    18    54    53   ar
    19    24    25    1
    20    24    21    1
    21    79    82    1
    22    89    90    1
    23    25    26    1
    24    31    32    2
    25    31    30    1
    26    22    29   am
    27    22    21    1
    28    91    90    1
    29    91    92    2
    30    30    29    1
    31    30    33    1
    32    44    43    2
    33    36    41   am
    34    36    37    2
    35   148   147    2
    36    41    42    1
    37    21    20    1
    38    53    55   ar
    39    53    52    1
    40    20    11   am
    41    82    83    1
    42    90    93    1
    43    70    71    2
    44    70    69    1
    45    17    15   ar
    46    17    19   ar
    47    15    14   ar
    48   147   146    1
    49    26    27   ar
    50    26    28   ar
    51    43    42    1
    52    43    47   am
    53    52    51    1
    54    93    94    1
    55    46    45    1
    56    42    45    1
    57    11    10    1
    58    11    12    2
    59    69    68    1
    60    69    72    1
    61    10    13    1
    62    10     9    1
    63    19    18   ar
    64    83    85   ar
    65    83    84   ar
    66     4     3    2
    67    14    13    1
    68    14    16   ar
    69    85    87   ar
    70    51    48    1
    71    48    47    1
    72    48    49    1
    73   146   149    1
    74   146   145    1
    75   149   150    1
    76   155   156    1
    77     3     9   am
    78     3     2    1
    79    94    96    1
    80    94    95    1
    81    84    86   ar
    82    72    73    1
    83    18    16   ar
    84   137   136    2
    85     1     2    1
    86    87    88   ar
    87    49    50    2
    88    74    73   ar
    89    74    76   ar
    90     2     5    1
    91   150   152   ar
    92   150   151   ar
    93   136   135    1
    94   156   159    1
    95   156   157    1
    96    73    75   ar
    97    86    88   ar
    98   162   160   ar
    99   159   160    1
   100     5     6    1
   101   138   135    1
   102   138   139    1
   103   157   158    2
   104   152   154   ar
   105   160   161   ar
   106   140   139   ar
   107   140   142   ar
   108   135   134    1
   109   139   141   ar
   110    76    77   ar
   111   151   153   ar
   112   142   144   ar
   113     6     8   ar
   114     6     7   ar
   115    75    77   ar
   116   141   143   ar
   117   133   131   ar
   118   144   143   ar
   119   154   153   ar
   120   129   128    2
   121   131   130    1
   122   131   132   ar
   123   130   127    1
   124    56    57    1
   125   128   127    1
   126   127   126    1
   127    60    61    1
   128    60    58   am
   129    61    62    1
   130    61    64    1
   131    66    65    2
   132    57    58    1
   133    62    63    2
   134    58    59    2
   135   126   114   am
   136   115   114    2
   137    64    65    1
   138    65    67   am
   139   114   113    1
   140   104   105    1
   141   108   109    1
   142   108   105    1
   143   110   109   ar
   144   116   113    1
   145   116   117    1
   146   122   124   ar
   147   122   119   ar
   148   113   112    1
   149   124   125   ar
   150   109   111   ar
   151   105   106    1
   152   107   106    2
   153   119   117   ar
   154   119   121   ar
   155   117   118   ar
   156   125   123   ar
   157   121   123   ar
   158   121   120   ar
   159   118   120   ar
