@<TRIPOS>MOLECULE
tmp/1zc2B00.pdb
 127 116 0 0 0
SMALL
GASTEIGER

@<TRIPOS>ATOM
      1  N         11.1950   45.4860   49.5460 N.3    59  SER59      -0.1217
      2  CA        12.2380   45.0870   48.5840 C.3    59  SER59       0.1889
      3  C         13.3480   46.0930   48.3480 C.2    59  SER59       0.2288
      4  O         14.3730   45.8240   47.6900 O.2    59  SER59      -0.2866
      5  CB        11.5760   44.7150   47.2480 C.3    59  SER59       0.2089
      6  OG        10.7760   43.5080   47.3300 O.3    59  SER59      -0.2183
      7  N         16.3370   44.7430   49.5200 N.3    62  LYS62      -0.1245
      8  CA        17.1070   43.9670   48.4940 C.3    62  LYS62       0.1561
      9  C         18.4390   44.6110   47.9280 C.2    62  LYS62       0.2260
     10  O         19.3920   43.9470   47.4670 O.2    62  LYS62      -0.2867
     11  CB        16.1050   43.5810   47.3590 C.3    62  LYS62       0.0271
     12  CG        15.5350   42.0450   47.4370 C.3    62  LYS62       0.0035
     13  CD        14.5460   41.8820   46.3010 C.3    62  LYS62       0.0206
     14  CE        13.3940   40.9490   46.6190 C.3    62  LYS62       0.1093
     15  NZ        12.2280   41.3440   47.5040 N.3    62  LYS62      -0.1314
     16  N          7.7430   33.7900   43.3200 N.3   114  LEU114     -0.1245
     17  CA         7.7380   35.0980   43.9190 C.3   114  LEU114      0.1561
     18  C          7.7960   35.0040   45.4790 C.2   114  LEU114      0.2260
     19  O          8.6760   35.5380   46.1230 O.2   114  LEU114     -0.2867
     20  CB         6.5060   35.8500   43.4710 C.3   114  LEU114      0.0270
     21  CG         6.2400   37.1930   44.1860 C.3   114  LEU114      0.0019
     22  CD1        7.3660   38.2130   43.6860 C.3   114  LEU114      0.0001
     23  CD2        4.8140   37.6910   43.9940 C.3   114  LEU114      0.0001
     24  N         14.4650   35.8460   33.5510 N.3   143  ARG143     -0.1245
     25  CA        14.3340   36.5850   34.7960 C.3   143  ARG143      0.1563
     26  C         12.8660   36.5550   35.3880 C.2   143  ARG143      0.2260
     27  O         11.9020   36.8390   34.6990 O.2   143  ARG143     -0.2867
     28  CB        14.8910   38.0190   34.6100 C.3   143  ARG143      0.0307
     29  CG        14.7120   38.9720   35.9340 C.3   143  ARG143      0.0489
     30  CD        15.1440   40.4730   35.6340 C.3   143  ARG143      0.2205
     31  NE        15.0330   41.3400   36.7870 N.pl3 143  ARG143     -0.0865
     32  CZ        13.8580   41.8210   37.2400 C.cat 143  ARG143      0.5346
     33  NH1       12.7730   41.4460   36.6230 N.pl3 143  ARG143      0.1354
     34  NH2       13.7390   42.7350   38.2620 N.pl3 143  ARG143      0.1354
     35  N         11.2480   37.8870   39.0100 N.3   145  TYR145     -0.1241
     36  CA        11.5500   38.5250   40.2280 C.3   145  TYR145      0.1605
     37  C         11.0590   37.6570   41.3210 C.2   145  TYR145      0.2264
     38  O          9.9150   37.1860   41.3060 O.2   145  TYR145     -0.2867
     39  CB        10.8810   39.8300   40.3200 C.3   145  TYR145      0.0534
     40  CG        10.9860   40.5350   41.6240 C.ar  145  TYR145     -0.0201
     41  CD1       10.0060   40.3990   42.5680 C.ar  145  TYR145     -0.0009
     42  CD2       12.0990   41.3560   41.9510 C.ar  145  TYR145     -0.0009
     43  CE1       10.0600   41.1090   43.8320 C.ar  145  TYR145      0.0417
     44  CE2       12.1580   42.1000   43.2240 C.ar  145  TYR145      0.0417
     45  CZ        11.1100   41.9920   44.1200 C.ar  145  TYR145      0.1957
     46  OH        11.0820   42.6840   45.3300 O.3   145  TYR145     -0.2866
     47  N         11.4830   36.8870   45.6820 N.3   147  ASN147     -0.1240
     48  CA        11.8950   36.6330   47.0920 C.3   147  ASN147      0.1653
     49  C         12.6180   35.3330   47.4260 C.2   147  ASN147      0.2266
     50  O         13.5940   35.3610   48.1470 O.2   147  ASN147     -0.2867
     51  CB        10.7320   36.9790   48.0930 C.3   147  ASN147      0.1155
     52  CG        10.4260   38.4920   48.0990 C.2   147  ASN147      0.2627
     53  OD1       11.2530   39.3430   47.8840 O.2   147  ASN147     -0.2716
     54  ND2        9.2290   38.7890   48.3850 N.am  147  ASN147     -0.0877
     55  N         18.3430   47.6700   40.1030 N.3   267  GLU267     -0.1245
     56  CA        18.1530   47.6010   38.6490 C.3   267  GLU267      0.1567
     57  C         18.5700   49.0240   38.1840 C.2   267  GLU267      0.2260
     58  O         18.3900   49.9770   38.9470 O.2   267  GLU267     -0.2867
     59  CB        16.6510   47.3390   38.3370 C.3   267  GLU267      0.0388
     60  CG        16.1640   46.2140   39.1850 C.3   267  GLU267      0.1160
     61  CD        14.6740   45.9110   39.2790 C.2   267  GLU267      0.3649
     62  OE1       13.8680   46.4930   38.5240 O.co2 267  GLU267     -0.2457
     63  OE2       14.3510   44.9740   40.1230 O.co2 267  GLU267     -0.2457
     64  N          7.4010   49.7180   35.9860 N.3   282  SER282     -0.1217
     65  CA         7.0190   49.4360   37.4060 C.3   282  SER282      0.1889
     66  C          5.6830   48.7540   37.6840 C.2   282  SER282      0.2288
     67  O          5.3860   48.5100   38.8200 O.2   282  SER282     -0.2866
     68  CB         7.0830   50.7350   38.2010 C.3   282  SER282      0.2089
     69  OG         5.9270   51.4260   37.9040 O.3   282  SER282     -0.2183
     70  N          6.7000   44.0930   35.8760 N.3   287  ALA287     -0.1231
     71  CA         7.6980   43.8680   36.9130 C.3   287  ALA287      0.1694
     72  C          7.6910   42.3690   37.5290 C.2   287  ALA287      0.2591
     73  O          8.7460   41.7000   37.7790 O.2   287  ALA287     -0.2718
     74  CB         7.5300   44.8790   37.9140 C.3   287  ALA287      0.0304
     75  N          6.5060   41.8080   37.6050 N.am  288  LEU288     -0.1980
     76  CA         6.3720   40.4440   38.0700 C.3   288  LEU288      0.1596
     77  C          6.3280   39.4300   36.9740 C.2   288  LEU288      0.2287
     78  O          6.2190   38.2790   37.2640 O.2   288  LEU288     -0.2864
     79  CB         5.1160   40.3390   38.9320 C.3   288  LEU288      0.0297
     80  CG         5.0860   41.1910   40.1980 C.3   288  LEU288      0.0022
     81  CD1        3.8110   40.6550   40.9600 C.3   288  LEU288      0.0001
     82  CD2        6.3400   41.1190   41.0830 C.3   288  LEU288      0.0001
     83  N         15.0680   51.0980   42.9430 N.3   310  LYS310     -0.1231
     84  CA        14.3400   49.9970   43.5240 C.3   310  LYS310      0.1693
     85  C         13.0520   50.6360   44.2820 C.2   310  LYS310      0.2593
     86  O         13.2040   51.6130   45.0830 O.2   310  LYS310     -0.2718
     87  CB        15.2770   49.2700   44.4610 C.3   310  LYS310      0.0285
     88  CG        14.7860   47.8480   44.9190 C.3   310  LYS310      0.0035
     89  CD        14.4490   47.1480   43.6590 C.3   310  LYS310      0.0206
     90  CE        13.5720   45.9470   43.8950 C.3   310  LYS310      0.1093
     91  NZ        12.1160   46.2970   43.8170 N.3   310  LYS310     -0.1314
     92  N         11.8330   50.1590   43.9190 N.am  311  THR311     -0.1939
     93  CA        10.6020   50.1720   44.7720 C.3   311  THR311      0.2028
     94  C         10.5670   48.9720   45.7880 C.2   311  THR311      0.2643
     95  O         11.2760   48.0520   45.5760 O.2   311  THR311     -0.2714
     96  CB         9.3580   50.1040   43.9460 C.3   311  THR311      0.1808
     97  OG1        9.4280   48.9820   43.0180 O.3   311  THR311     -0.2208
     98  CG2        9.1620   51.4120   43.1330 C.3   311  THR311      0.0379
     99  N          9.7890   49.0410   46.8880 N.am  312  GLY312     -0.1939
    100  CA         9.6370   47.9540   47.8460 C.3   312  GLY312      0.2014
    101  C          8.3780   48.2430   48.6410 C.2   312  GLY312      0.2639
    102  O          8.0310   49.4440   48.9510 O.2   312  GLY312     -0.2714
    103  N          7.5770   47.2470   48.9050 N.am  313  SER313     -0.1949
    104  CA         6.3490   47.5370   49.6470 C.3   313  SER313      0.1924
    105  C          6.0950   46.3990   50.6240 C.2   313  SER313      0.2314
    106  O          6.4840   45.2410   50.3830 O.2   313  SER313     -0.2863
    107  CB         5.1260   47.6660   48.7000 C.3   313  SER313      0.2116
    108  OG         5.3980   48.4840   47.5350 O.3   313  SER313     -0.2180
    109  N          2.8620   51.1370   42.4460 N.3   341  ASN341     -0.1240
    110  CA         4.2180   51.5770   42.0630 C.3   341  ASN341      0.1653
    111  C          4.2210   52.5700   40.8640 C.2   341  ASN341      0.2266
    112  O          4.9900   53.5350   40.9050 O.2   341  ASN341     -0.2867
    113  CB         5.0930   50.3680   41.7770 C.3   341  ASN341      0.1155
    114  CG         5.7080   49.8310   43.0670 C.2   341  ASN341      0.2627
    115  OD1        6.1200   50.6200   43.9280 O.2   341  ASN341     -0.2716
    116  ND2        5.7620   48.5110   43.2120 N.am  341  ASN341     -0.0877
    117  N          4.1110   55.8850   42.2570 N.3   344  ARG344     -0.1245
    118  CA         5.2910   56.2480   43.0530 C.3   344  ARG344      0.1563
    119  C          6.4250   56.7420   42.1350 C.2   344  ARG344      0.2260
    120  O          6.9910   57.7750   42.4220 O.2   344  ARG344     -0.2867
    121  CB         5.8770   55.0790   43.9240 C.3   344  ARG344      0.0307
    122  CG         5.0330   53.9620   44.2660 C.3   344  ARG344      0.0489
    123  CD         5.1040   53.7110   45.8440 C.3   344  ARG344      0.2205
    124  NE         5.9370   52.6220   46.2650 N.pl3 344  ARG344     -0.0865
    125  CZ         5.5670   51.4330   46.7770 C.cat 344  ARG344      0.5346
    126  NH1        4.3280   50.9830   46.8850 N.pl3 344  ARG344      0.1354
    127  NH2        6.5530   50.6300   47.1200 N.pl3 344  ARG344      0.1354
@<TRIPOS>BOND
     1    24    25    1
     2    28    25    1
     3    28    29    1
     4    27    26    2
     5    25    26    1
     6    30    29    1
     7    30    31    1
     8    70    71    1
     9    64    65    1
    10    33    32    1
    11    31    32    2
    12    71    72    1
    13    71    74    1
    14    77    78    2
    15    77    76    1
    16    32    34    1
    17    65    66    1
    18    65    68    1
    19    72    75   am
    20    72    73    2
    21    75    76    1
    22    66    67    2
    23    69    68    1
    24    76    79    1
    25    57    56    1
    26    57    58    2
    27    59    56    1
    28    59    60    1
    29    62    61   ar
    30    56    55    1
    31    79    80    1
    32    35    36    1
    33    60    61    1
    34    61    63   ar
    35    80    81    1
    36    80    82    1
    37    36    39    1
    38    36    37    1
    39    39    40    1
    40   111   112    2
    41   111   110    1
    42    38    37    2
    43    40    42   ar
    44    40    41   ar
    45   113   110    1
    46   113   114    1
    47    42    44   ar
    48   110   109    1
    49   119   120    2
    50   119   118    1
    51   117   118    1
    52    41    43   ar
    53    83    84    1
    54    97    96    1
    55   118   121    1
    56   114   116   am
    57   114   115    2
    58    98    96    1
    59    44    45   ar
    60    16    17    1
    61    20    17    1
    62    20    21    1
    63    84    85    1
    64    84    87    1
    65    89    90    1
    66    89    88    1
    67    22    21    1
    68    91    90    1
    69    43    45   ar
    70    92    85   am
    71    92    93    1
    72    17    18    1
    73   121   122    1
    74    96    93    1
    75    23    21    1
    76    45    46    1
    77   122   123    1
    78    85    86    2
    79    87    88    1
    80    93    94    1
    81    18    19    2
    82    95    94    2
    83    47    48    1
    84    94    99   am
    85   123   124    1
    86   124   125    2
    87    13    14    1
    88    13    12    1
    89    14    15    1
    90   125   126    1
    91   125   127    1
    92    99   100    1
    93    48    49    1
    94    48    51    1
    95     5     6    1
    96     5     2    1
    97    11    12    1
    98    11     8    1
    99    49    50    2
   100    10     9    2
   101   108   107    1
   102     4     3    2
   103   100   101    1
   104    53    52    2
   105     9     8    1
   106    51    52    1
   107    52    54   am
   108     3     2    1
   109     8     7    1
   110     2     1    1
   111   101   103   am
   112   101   102    2
   113   107   104    1
   114   103   104    1
   115   104   105    1
   116   106   105    2
