@<TRIPOS>MOLECULE
tmp/1zcaA00.pdb
 197 189 0 0 0
SMALL
GASTEIGER

@<TRIPOS>ATOM
      1  N         -8.8340   18.2310   34.3660 N.3    11  GLY11      -0.1210
      2  CA        -9.0660   16.8330   34.7290 C.3    11  GLY11       0.1956
      3  C         -9.5120   15.9950   33.5440 C.2    11  GLY11       0.2612
      4  O        -10.3050   16.4580   32.7210 O.2    11  GLY11      -0.2717
      5  N         -8.9990   14.7670   33.4550 N.am   12  GLU12      -0.1965
      6  CA        -9.3410   13.8330   32.3700 C.3    12  GLU12       0.1733
      7  C         -9.0190   14.4290   30.9980 C.2    12  GLU12       0.2617
      8  O         -9.8870   14.5530   30.1350 O.2    12  GLU12      -0.2715
      9  CB       -10.8130   13.3960   32.4640 C.3    12  GLU12       0.0429
     10  CG       -11.1150   12.5410   33.7060 C.3    12  GLU12       0.1163
     11  CD       -12.6060   12.3340   33.9690 C.2    12  GLU12       0.3649
     12  OE1      -13.4210   13.1170   33.4330 O.co2  12  GLU12      -0.2457
     13  OE2      -12.9600   11.3870   34.7170 O.co2  12  GLU12      -0.2457
     14  N         -7.7570   14.8180   30.8300 N.am   13  SER13      -0.1936
     15  CA        -7.2420   15.3680   29.5670 C.3    13  SER13       0.2055
     16  C         -6.1530   14.4910   28.9260 C.2    13  SER13       0.2644
     17  O         -5.8360   14.6670   27.7470 O.2    13  SER13      -0.2714
     18  CB        -6.7140   16.7950   29.7840 C.3    13  SER13       0.2130
     19  OG        -5.7960   16.8540   30.8650 O.3    13  SER13      -0.2179
     20  N         -5.5870   13.5580   29.6930 N.am   14  GLY14      -0.1939
     21  CA        -4.6170   12.5980   29.1690 C.3    14  GLY14       0.2014
     22  C         -3.1900   12.8110   29.6340 C.2    14  GLY14       0.2639
     23  O         -2.2640   12.2410   29.0580 O.2    14  GLY14      -0.2714
     24  N         -2.9990   13.6180   30.6750 N.am   15  LYS15      -0.1963
     25  CA        -1.6590   13.8680   31.2250 C.3    15  LYS15       0.1728
     26  C         -0.9540   12.5610   31.5620 C.2    15  LYS15       0.2617
     27  O          0.1060   12.2710   31.0220 O.2    15  LYS15      -0.2715
     28  CB        -1.7340   14.7540   32.4700 C.3    15  LYS15       0.0311
     29  CG        -2.1810   16.1870   32.2020 C.3    15  LYS15       0.0038
     30  CD        -2.2670   16.9870   33.4920 C.3    15  LYS15       0.0206
     31  CE        -3.5050   16.6490   34.3110 C.3    15  LYS15       0.1093
     32  NZ        -4.7570   17.1160   33.6720 N.3    15  LYS15      -0.1314
     33  N         -1.5590   11.7700   32.4410 N.am   16  SER16      -0.1936
     34  CA        -0.9820   10.4890   32.8550 C.3    16  SER16       0.2055
     35  C         -0.7990    9.5510   31.6740 C.2    16  SER16       0.2643
     36  O          0.2000    8.8450   31.5870 O.2    16  SER16      -0.2714
     37  CB        -1.8760    9.8170   33.8900 C.3    16  SER16       0.2130
     38  OG        -2.3620   10.7670   34.8180 O.3    16  SER16      -0.2179
     39  N         -1.7830    9.5520   30.7760 N.am   17  THR17      -0.1950
     40  CA        -1.7770    8.6990   29.5910 C.3    17  THR17       0.1897
     41  C         -0.5460    8.9950   28.7540 C.2    17  THR17       0.2313
     42  O          0.1260    8.0810   28.3010 O.2    17  THR17      -0.2863
     43  CB        -3.0670    8.8920   28.7500 C.3    17  THR17       0.1794
     44  OG1       -4.2100    8.7430   29.5970 O.3    17  THR17      -0.2208
     45  CG2       -3.1550    7.8770   27.6210 C.3    17  THR17       0.0378
     46  N        -16.2520    8.0760   32.1990 N.3   121  GLY121     -0.1210
     47  CA       -15.0450    8.0130   31.3740 C.3   121  GLY121      0.1956
     48  C        -15.2250    6.9900   30.2680 C.2   121  GLY121      0.2612
     49  O        -15.1270    5.7860   30.5170 O.2   121  GLY121     -0.2717
     50  N        -15.4710    7.4700   29.0470 N.am  122  GLU122     -0.1965
     51  CA       -15.8590    6.6090   27.9160 C.3   122  GLU122      0.1733
     52  C        -14.8850    5.4650   27.6140 C.2   122  GLU122      0.2617
     53  O        -15.1850    4.6030   26.7930 O.2   122  GLU122     -0.2715
     54  CB       -16.1160    7.4450   26.6500 C.3   122  GLU122      0.0429
     55  CG       -14.9020    7.7180   25.7660 C.3   122  GLU122      0.1163
     56  CD       -13.8250    8.5210   26.4660 C.2   122  GLU122      0.3649
     57  OE1      -12.6330    8.1630   26.3490 O.co2 122  GLU122     -0.2457
     58  OE2      -14.1710    9.5140   27.1330 O.co2 122  GLU122     -0.2457
     59  N        -13.7300    5.4640   28.2810 N.am  123  SER123     -0.1950
     60  CA       -12.8270    4.3130   28.3060 C.3   123  SER123      0.1924
     61  C        -13.5330    3.0030   28.7000 C.2   123  SER123      0.2314
     62  O        -12.9610    1.9280   28.5500 O.2   123  SER123     -0.2863
     63  CB       -11.6650    4.5940   29.2640 C.3   123  SER123      0.2116
     64  OG       -10.8130    3.4740   29.3890 O.3   123  SER123     -0.2180
     65  N         -2.8650    1.7970   28.7230 N.3   147  LEU147     -0.1231
     66  CA        -2.9840    3.1810   28.2660 C.3   147  LEU147      0.1693
     67  C         -4.4160    3.6800   28.3600 C.2   147  LEU147      0.2592
     68  O         -4.6500    4.8630   28.6290 O.2   147  LEU147     -0.2718
     69  CB        -2.5010    3.3040   26.8210 C.3   147  LEU147      0.0284
     70  CG        -0.9950    3.1160   26.6010 C.3   147  LEU147      0.0019
     71  CD1       -0.6960    2.7330   25.1640 C.3   147  LEU147      0.0001
     72  CD2       -0.2300    4.3820   27.0100 C.3   147  LEU147      0.0001
     73  N         -5.3670    2.7740   28.1440 N.am  148  LEU148     -0.1966
     74  CA        -6.7870    3.1090   28.2300 C.3   148  LEU148      0.1728
     75  C         -7.3440    3.1180   29.6510 C.2   148  LEU148      0.2616
     76  O         -8.3950    3.7100   29.8960 O.2   148  LEU148     -0.2715
     77  CB        -7.6110    2.1910   27.3240 C.3   148  LEU148      0.0311
     78  CG        -7.6680    2.7680   25.9080 C.3   148  LEU148      0.0022
     79  CD1       -7.8530    1.6960   24.8460 C.3   148  LEU148      0.0001
     80  CD2       -8.7670    3.8320   25.8330 C.3   148  LEU148      0.0001
     81  N         -6.6390    2.4780   30.5790 N.am  149  ALA149     -0.1963
     82  CA        -7.0200    2.5040   31.9910 C.3   149  ALA149      0.1728
     83  C         -6.9240    3.9120   32.5800 C.2   149  ALA149      0.2616
     84  O         -6.1740    4.7720   32.0900 O.2   149  ALA149     -0.2715
     85  CB        -6.1630    1.5490   32.7900 C.3   149  ALA149      0.0334
     86  N         -7.6870    4.1240   33.6460 N.am  150  ARG150     -0.1963
     87  CA        -7.8680    5.4410   34.2340 C.3   150  ARG150      0.1729
     88  C         -7.7150    5.3840   35.7510 C.2   150  ARG150      0.2616
     89  O         -8.3920    4.6170   36.4250 O.2   150  ARG150     -0.2715
     90  CB        -9.2510    5.9740   33.8490 C.3   150  ARG150      0.0348
     91  CG        -9.8160    7.0510   34.7410 C.3   150  ARG150      0.0492
     92  CD        -9.0860    8.3720   34.6210 C.3   150  ARG150      0.2205
     93  NE        -9.5020    9.2550   35.7030 N.pl3 150  ARG150     -0.0865
     94  CZ        -9.2220   10.5480   35.7960 C.cat 150  ARG150      0.5346
     95  NH1       -8.5010   11.1570   34.8660 N.pl3 150  ARG150      0.1354
     96  NH2       -9.6710   11.2330   36.8410 N.pl3 150  ARG150      0.1354
     97  N         -6.8010    6.1950   36.2690 N.am  151  LYS151     -0.1977
     98  CA        -6.7090    6.4530   37.6880 C.3   151  LYS151      0.1596
     99  C         -6.5380    7.9530   37.8490 C.2   151  LYS151      0.2287
    100  O         -5.7290    8.5560   37.1520 O.2   151  LYS151     -0.2864
    101  CB        -5.5250    5.7100   38.2940 C.3   151  LYS151      0.0298
    102  CG        -5.5370    5.6640   39.8100 C.3   151  LYS151      0.0038
    103  CD        -6.5880    4.7060   40.3360 C.3   151  LYS151      0.0206
    104  CE        -6.5230    4.5860   41.8470 C.3   151  LYS151      0.1093
    105  NZ        -5.2640    3.9250   42.2920 N.3   151  LYS151     -0.1314
    106  N         -5.1930   11.2370   39.2100 N.3   153  THR153     -0.1218
    107  CA        -3.9410   11.6110   39.8600 C.3   153  THR153      0.1862
    108  C         -4.2480   12.5890   40.9820 C.2   153  THR153      0.2287
    109  O         -4.7050   13.7070   40.7360 O.2   153  THR153     -0.2866
    110  CB        -2.9330   12.2390   38.8820 C.3   153  THR153      0.1770
    111  OG1       -2.8330   11.4250   37.7070 O.3   153  THR153     -0.2211
    112  CG2       -1.5550   12.3530   39.5240 C.3   153  THR153      0.0375
    113  N          4.0740   14.8470   36.2380 N.3   172  ASP172     -0.1225
    114  CA         2.6460   14.7160   36.0330 C.3   172  ASP172      0.1805
    115  C          1.9530   15.1250   37.3360 C.2   172  ASP172      0.2598
    116  O          2.3320   14.6680   38.4180 O.2   172  ASP172     -0.2718
    117  CB         2.3130   13.2720   35.6410 C.3   172  ASP172      0.1424
    118  CG         0.8300   13.0240   35.5070 C.2   172  ASP172      0.3668
    119  OD1        0.1240   13.9380   35.0380 O.co2 172  ASP172     -0.2456
    120  OD2        0.3730   11.9160   35.8640 O.co2 172  ASP172     -0.2456
    121  N          0.9600   16.0060   37.2230 N.am  173  VAL173     -0.1966
    122  CA         0.1620   16.4460   38.3660 C.3   173  VAL173      0.1727
    123  C         -1.3130   16.3580   37.9770 C.2   173  VAL173      0.2617
    124  O         -1.6310   16.1160   36.8120 O.2   173  VAL173     -0.2715
    125  CB         0.5490   17.8850   38.8030 C.3   173  VAL173      0.0290
    126  CG1        0.0850   18.9140   37.7700 C.3   173  VAL173      0.0023
    127  CG2        0.0060   18.2210   40.2010 C.3   173  VAL173      0.0023
    128  N         -2.2010   16.5400   38.9540 N.am  174  GLY174     -0.1940
    129  CA        -3.6460   16.4170   38.7440 C.3   174  GLY174      0.2014
    130  C         -4.3040   17.6760   38.2190 C.2   174  GLY174      0.2639
    131  O         -3.8720   18.7800   38.5230 O.2   174  GLY174     -0.2714
    132  N         -5.3760   17.4980   37.4520 N.am  175  GLY175     -0.1939
    133  CA        -6.0190   18.6000   36.7360 C.3   175  GLY175      0.2014
    134  C         -7.2760   19.1720   37.3690 C.2   175  GLY175      0.2638
    135  O         -7.7150   20.2530   36.9870 O.2   175  GLY175     -0.2714
    136  N         -7.8620   18.4560   38.3300 N.am  176  GLN176     -0.1977
    137  CA        -9.1210   18.8890   38.9520 C.3   176  GLN176      0.1601
    138  C         -8.9240   20.0990   39.8570 C.2   176  GLN176      0.2287
    139  O         -7.8630   20.2680   40.4630 O.2   176  GLN176     -0.2864
    140  CB        -9.7770   17.7550   39.7470 C.3   176  GLN176      0.0394
    141  CG       -10.6730   16.8180   38.9160 C.3   176  GLN176      0.0908
    142  CD        -9.9670   15.5700   38.4040 C.2   176  GLN176      0.2608
    143  OE1       -8.8390   15.2680   38.7930 O.2   176  GLN176     -0.2717
    144  NE2      -10.6430   14.8310   37.5300 N.am  176  GLN176     -0.0878
    145  N         -5.9190   16.8680   22.3330 N.3   241  ASN241     -0.1225
    146  CA        -5.8850   15.4200   22.4940 C.3   241  ASN241      0.1785
    147  C         -7.2630   14.8210   22.2760 C.2   241  ASN241      0.2597
    148  O         -8.2380   15.5540   22.1220 O.2   241  ASN241     -0.2718
    149  CB        -5.3700   15.0790   23.8960 C.3   241  ASN241      0.1169
    150  CG        -4.9390   13.6330   24.0310 C.2   241  ASN241      0.2627
    151  OD1       -4.5020   13.0090   23.0610 O.2   241  ASN241     -0.2716
    152  ND2       -5.0670   13.0870   25.2370 N.am  241  ASN241     -0.0877
    153  N         -7.3340   13.4910   22.2630 N.am  242  LYS242     -0.1980
    154  CA        -8.5780   12.7500   22.0250 C.3   242  LYS242      0.1596
    155  C         -9.1310   13.0210   20.6210 C.2   242  LYS242      0.2287
    156  O        -10.3420   13.0270   20.4000 O.2   242  LYS242     -0.2864
    157  CB        -9.6090   13.0410   23.1230 C.3   242  LYS242      0.0298
    158  CG        -9.1280   12.6060   24.4980 C.3   242  LYS242      0.0038
    159  CD       -10.1170   12.9450   25.5960 C.3   242  LYS242      0.0206
    160  CE        -9.6030   12.4720   26.9510 C.3   242  LYS242      0.1093
    161  NZ       -10.2850   13.1530   28.0760 N.3   242  LYS242     -0.1314
    162  N         -9.1050   11.1910   18.0520 N.3   244  ASP244     -0.1225
    163  CA        -9.8460   10.0460   17.5370 C.3   244  ASP244      0.1805
    164  C        -11.2860   10.0080   18.0640 C.2   244  ASP244      0.2597
    165  O        -12.1950    9.5700   17.3570 O.2   244  ASP244     -0.2718
    166  CB        -9.1190    8.7480   17.8810 C.3   244  ASP244      0.1424
    167  CG        -9.2020    8.4090   19.3420 C.2   244  ASP244      0.3668
    168  OD1       -9.1660    9.3350   20.1740 O.co2 244  ASP244     -0.2456
    169  OD2       -9.3140    7.2120   19.6580 O.co2 244  ASP244     -0.2456
    170  N        -11.4850   10.4530   19.3050 N.am  245  LEU245     -0.1979
    171  CA       -12.8270   10.5860   19.8740 C.3   245  LEU245      0.1596
    172  C        -13.5140   11.7950   19.2710 C.2   245  LEU245      0.2287
    173  O        -14.7120   11.7610   18.9960 O.2   245  LEU245     -0.2864
    174  CB       -12.7750   10.7590   21.3960 C.3   245  LEU245      0.0297
    175  CG       -12.0810    9.6890   22.2390 C.3   245  LEU245      0.0022
    176  CD1      -12.3030    9.9660   23.7110 C.3   245  LEU245      0.0001
    177  CD2      -12.5740    8.2980   21.8840 C.3   245  LEU245      0.0001
    178  N         -3.4310   11.8090   19.8010 N.3   297  THR297     -0.1203
    179  CA        -4.2410   10.7880   20.4250 C.3   297  THR297      0.1994
    180  C         -3.3070   10.0070   21.3370 C.2   297  THR297      0.2618
    181  O         -2.5530    9.1570   20.8700 O.2   297  THR297     -0.2717
    182  CB        -4.8820    9.8780   19.3760 C.3   297  THR297      0.1784
    183  OG1       -5.7620   10.6600   18.5650 O.3   297  THR297     -0.2211
    184  CG2       -5.6750    8.7490   20.0290 C.3   297  THR297      0.0376
    185  N         -3.3620   10.3150   22.6340 N.am  298  ALA298     -0.1965
    186  CA        -2.3990    9.8090   23.6220 C.3   298  ALA298      0.1728
    187  C         -2.4870    8.3080   23.8950 C.2   298  ALA298      0.2616
    188  O         -1.5970    7.7420   24.5320 O.2   298  ALA298     -0.2715
    189  CB        -2.5310   10.5860   24.9340 C.3   298  ALA298      0.0334
    190  N         -3.5530    7.6640   23.4320 N.am  299  ILE299     -0.1977
    191  CA        -3.6610    6.2100   23.5500 C.3   299  ILE299      0.1596
    192  C         -2.9040    5.4870   22.4310 C.2   299  ILE299      0.2287
    193  O         -2.5070    4.3320   22.6000 O.2   299  ILE299     -0.2864
    194  CB        -5.1310    5.7450   23.6150 C.3   299  ILE299      0.0276
    195  CG1       -5.9310    6.2020   22.3910 C.3   299  ILE299      0.0022
    196  CG2       -5.7710    6.2770   24.8860 C.3   299  ILE299      0.0022
    197  CD1       -7.2470    5.4740   22.2340 C.3   299  ILE299      0.0001
@<TRIPOS>BOND
     1   165   164    2
     2   163   166    1
     3   163   162    1
     4   163   164    1
     5   166   167    1
     6   164   170   am
     7   183   182    1
     8   173   172    2
     9   172   171    1
    10   170   171    1
    11   167   169   ar
    12   167   168   ar
    13   182   184    1
    14   182   179    1
    15   178   179    1
    16   171   174    1
    17   156   155    2
    18   179   180    1
    19   155   154    1
    20   181   180    2
    21   180   185   am
    22   174   175    1
    23   177   175    1
    24   154   153    1
    25   154   157    1
    26   148   147    2
    27   197   195    1
    28   175   176    1
    29   153   147   am
    30   147   146    1
    31   145   146    1
    32   195   194    1
    33   192   193    2
    34   192   191    1
    35   146   149    1
    36   185   186    1
    37   151   150    2
    38   157   158    1
    39   190   191    1
    40   190   187   am
    41   191   194    1
    42   194   196    1
    43   186   187    1
    44   186   189    1
    45   187   188    2
    46   149   150    1
    47   150   152   am
    48   158   159    1
    49    79    78    1
    50    71    70    1
    51   159   160    1
    52    55    56    1
    53    55    54    1
    54    80    78    1
    55    78    77    1
    56    57    56   ar
    57    56    58   ar
    58    70    69    1
    59    70    72    1
    60    54    51    1
    61    53    52    2
    62    69    66    1
    63   160   161    1
    64    77    74    1
    65    52    51    1
    66    52    59   am
    67    45    43    1
    68    17    16    2
    69    51    50    1
    70    73    74    1
    71    73    67   am
    72    74    75    1
    73    66    67    1
    74    66    65    1
    75    59    60    1
    76    42    41    2
    77    60    61    1
    78    60    63    1
    79    67    68    2
    80    62    61    2
    81    43    40    1
    82    43    44    1
    83    41    40    1
    84    16    15    1
    85    16    20   am
    86    50    48   am
    87    23    22    2
    88    21    22    1
    89    21    20    1
    90    63    64    1
    91    15    18    1
    92    15    14    1
    93    40    39    1
    94    22    24   am
    95    75    76    2
    96    75    81   am
    97    18    19    1
    98     8     7    2
    99    48    49    2
   100    48    47    1
   101    81    82    1
   102    24    25    1
   103    39    35   am
   104    14     7   am
   105     7     6    1
   106    27    26    2
   107    25    26    1
   108    25    28    1
   109    47    46    1
   110    26    33   am
   111    36    35    2
   112    35    34    1
   113    82    83    1
   114    82    85    1
   115    84    83    2
   116    29    28    1
   117    29    30    1
   118     6     9    1
   119     6     5    1
   120    33    34    1
   121     9    10    1
   122    83    86   am
   123     4     3    2
   124    34    37    1
   125    12    11   ar
   126     5     3   am
   127    30    31    1
   128     3     2    1
   129    86    87    1
   130    32    31    1
   131    10    11    1
   132    90    87    1
   133    90    91    1
   134    37    38    1
   135    11    13   ar
   136    87    88    1
   137     1     2    1
   138    92    91    1
   139    92    93    1
   140    95    94    1
   141   119   118   ar
   142   118   117    1
   143   118   120   ar
   144   117   114    1
   145    93    94    2
   146    88    97   am
   147    88    89    2
   148    94    96    1
   149   114   113    1
   150   114   115    1
   151    97    98    1
   152   133   134    1
   153   133   132    1
   154   124   123    2
   155   135   134    2
   156   100    99    2
   157   121   115   am
   158   121   122    1
   159   115   116    2
   160   134   136   am
   161   132   130   am
   162   144   142   am
   163    98    99    1
   164    98   101    1
   165   111   110    1
   166   126   125    1
   167   123   122    1
   168   123   128   am
   169   130   131    2
   170   130   129    1
   171   101   102    1
   172   136   137    1
   173   122   125    1
   174   142   143    2
   175   142   141    1
   176   129   128    1
   177   125   127    1
   178   110   112    1
   179   110   107    1
   180   141   140    1
   181   137   140    1
   182   137   138    1
   183   106   107    1
   184   102   103    1
   185   138   139    2
   186   107   108    1
   187   103   104    1
   188   109   108    2
   189   104   105    1
