@<TRIPOS>MOLECULE
tmp/1zchA00.pdb
 137 131 0 0 0
SMALL
GASTEIGER

@<TRIPOS>ATOM
      1  N         25.5060   -3.2570    9.9990 N.3    11  HIS11      -0.1226
      2  CA        24.4280   -2.3600   10.4020 C.3    11  HIS11       0.1752
      3  C         23.7710   -2.6050   11.7600 C.2    11  HIS11       0.2596
      4  O         23.5600   -3.7440   12.1730 O.2    11  HIS11      -0.2718
      5  CB        23.3030   -2.3610    9.3610 C.3    11  HIS11       0.0759
      6  CG        22.0480   -1.7060    9.8530 C.ar   11  HIS11       0.0818
      7  ND1       21.8930   -0.3370    9.8960 N.ar   11  HIS11      -0.2268
      8  CD2       20.9410   -2.2270   10.4350 C.ar   11  HIS11       0.1154
      9  CE1       20.7480   -0.0430   10.4880 C.ar   11  HIS11       0.1986
     10  NE2       20.1520   -1.1710   10.8260 N.ar   11  HIS11      -0.2212
     11  N         23.4420   -1.5020   12.4310 N.am   12  ARG12      -0.1966
     12  CA        22.7140   -1.5070   13.6980 C.3    12  ARG12       0.1729
     13  C         22.1670   -0.0940   13.8580 C.2    12  ARG12       0.2616
     14  O         22.8410    0.8780   13.5160 O.2    12  ARG12      -0.2715
     15  CB        23.6040   -1.8820   14.8990 C.3    12  ARG12       0.0348
     16  CG        24.4260   -0.7500   15.5170 C.3    12  ARG12       0.0492
     17  CD        25.5580   -0.3440   14.6030 C.3    12  ARG12       0.2205
     18  NE        26.3980   -1.4840   14.2470 N.pl3  12  ARG12      -0.0865
     19  CZ        27.2250   -2.1030   15.0830 C.cat  12  ARG12       0.5346
     20  NH1       27.3340   -1.6970   16.3440 N.pl3  12  ARG12       0.1354
     21  NH2       27.9460   -3.1300   14.6560 N.pl3  12  ARG12       0.1354
     22  N         20.9350    0.0260   14.3380 N.am   13  SER13      -0.1950
     23  CA        20.3390    1.3420   14.5300 C.3    13  SER13       0.1924
     24  C         20.9440    2.0610   15.7310 C.2    13  SER13       0.2314
     25  O         21.2310    1.4440   16.7600 O.2    13  SER13      -0.2863
     26  CB        18.8240    1.2230   14.7160 C.3    13  SER13       0.2116
     27  OG        18.1880    0.9210   13.4850 O.3    13  SER13      -0.2180
     28  N         20.4690    5.1940   18.5110 N.3    15  ARG15      -0.1245
     29  CA        19.4590    6.0580   19.1240 C.3    15  ARG15       0.1563
     30  C         20.0430    7.0070   20.1710 C.2    15  ARG15       0.2260
     31  O         19.3080    7.6320   20.9400 O.2    15  ARG15      -0.2867
     32  CB        18.3450    5.2180   19.7510 C.3    15  ARG15       0.0307
     33  CG        17.5550    4.4020   18.7390 C.3    15  ARG15       0.0489
     34  CD        16.3570    3.7180   19.3790 C.3    15  ARG15       0.2205
     35  NE        15.6080    2.9280   18.4040 N.pl3  15  ARG15      -0.0865
     36  CZ        15.9620    1.7160   17.9850 C.cat  15  ARG15       0.5346
     37  NH1       17.0580    1.1360   18.4600 N.pl3  15  ARG15       0.1354
     38  NH2       15.2210    1.0880   17.0810 N.pl3  15  ARG15       0.1354
     39  N         10.1050   10.7640   20.3600 N.3    67  GLN67      -0.1245
     40  CA        11.2930    9.9190   20.3640 C.3    67  GLN67       0.1566
     41  C         12.4900   10.8600   20.4710 C.2    67  GLN67       0.2260
     42  O         12.8550   11.5350   19.5070 O.2    67  GLN67      -0.2867
     43  CB        11.3420    9.0860   19.0800 C.3    67  GLN67       0.0367
     44  CG        10.1350    8.1640   18.9380 C.3    67  GLN67       0.0905
     45  CD        10.2530    7.1980   17.7750 C.2    67  GLN67       0.2608
     46  OE1       11.2590    6.5080   17.6290 O.2    67  GLN67      -0.2717
     47  NE2        9.2140    7.1330   16.9500 N.am   67  GLN67      -0.0878
     48  N         15.7150   10.7030   20.2860 N.3    69  TRP69      -0.1241
     49  CA        16.8150   10.6940   19.3300 C.3    69  TRP69       0.1605
     50  C         16.5600   11.5970   18.1240 C.2    69  TRP69       0.2264
     51  O         17.5020   12.0510   17.4790 O.2    69  TRP69      -0.2867
     52  CB        17.1320    9.2580   18.8880 C.3    69  TRP69       0.0550
     53  CG        15.9420    8.3560   18.7720 C.ar   69  TRP69       0.0003
     54  CD1       15.1820    8.1280   17.6580 C.ar   69  TRP69       0.0946
     55  CD2       15.3830    7.5450   19.8120 C.ar   69  TRP69       0.0152
     56  NE1       14.1860    7.2210   17.9410 N.ar   69  TRP69      -0.2442
     57  CE2       14.2860    6.8480   19.2560 C.ar   69  TRP69       0.0810
     58  CE3       15.7030    7.3390   21.1630 C.ar   69  TRP69       0.0012
     59  CZ2       13.5080    5.9560   20.0030 C.ar   69  TRP69       0.0191
     60  CZ3       14.9290    6.4520   21.9050 C.ar   69  TRP69       0.0001
     61  CH2       13.8430    5.7730   21.3220 C.ar   69  TRP69       0.0015
     62  N         15.2130    4.7630    1.3360 N.3   118  LEU118     -0.1245
     63  CA        15.5670    4.6850    2.7580 C.3   118  LEU118      0.1561
     64  C         16.7250    3.7100    2.9920 C.2   118  LEU118      0.2260
     65  O         17.6750    4.0160    3.7220 O.2   118  LEU118     -0.2867
     66  CB        14.3460    4.2380    3.5690 C.3   118  LEU118      0.0270
     67  CG        14.4910    4.0800    5.0830 C.3   118  LEU118      0.0019
     68  CD1       14.6760    5.4360    5.7270 C.3   118  LEU118      0.0001
     69  CD2       13.2380    3.4130    5.6370 C.3   118  LEU118      0.0001
     70  N         18.6080    5.7550   12.2550 N.3   133  VAL133     -0.1231
     71  CA        17.4860    4.9640   12.7500 C.3   133  VAL133      0.1678
     72  C         16.2410    5.4510   12.0160 C.2   133  VAL133      0.2434
     73  O         15.9300    6.6440   12.0200 O.2   133  VAL133     -0.2733
     74  CB        17.2810    5.0660   14.2890 C.3   133  VAL133      0.0265
     75  CG1       16.8550    6.4730   14.7030 C.3   133  VAL133      0.0020
     76  CG2       16.2330    4.0380   14.7230 C.3   133  VAL133      0.0020
     77  N         15.5400    4.5380   11.3280 N.am  134  PRO134     -0.2718
     78  CA        14.3360    4.9680   10.6100 C.3   134  PRO134      0.1535
     79  C         13.2360    5.2810   11.6170 C.2   134  PRO134      0.2598
     80  O         13.3010    4.8340   12.7620 O.2   134  PRO134     -0.2715
     81  CB        13.9860    3.7560    9.7430 C.3   134  PRO134      0.0310
     82  CG        15.2980    3.0190    9.6020 C.3   134  PRO134      0.0237
     83  CD        15.8850    3.1470   10.9890 C.3   134  PRO134      0.0939
     84  N         12.2390    6.0500   11.1900 N.am  135  ILE135     -0.1964
     85  CA        11.1290    6.4160   12.0630 C.3   135  ILE135      0.1727
     86  C          9.8000    6.1850   11.3450 C.2   135  ILE135      0.2617
     87  O          9.3170    7.0470   10.6150 O.2   135  ILE135     -0.2715
     88  CB        11.2070    7.9040   12.4920 C.3   135  ILE135      0.0290
     89  CG1       12.5150    8.1740   13.2520 C.3   135  ILE135      0.0022
     90  CG2       10.0000    8.2570   13.3560 C.3   135  ILE135      0.0023
     91  CD1       12.6240    7.4660   14.5950 C.3   135  ILE135      0.0001
     92  N          9.2120    5.0130   11.5550 N.am  136  GLY136     -0.1940
     93  CA         7.9450    4.7090   10.9140 C.3   136  GLY136      0.2014
     94  C          6.7860    5.4180   11.5850 C.2   136  GLY136      0.2638
     95  O          5.6950    5.5140   11.0180 O.2   136  GLY136     -0.2714
     96  N          7.0290    5.9290   12.7900 N.am  137  ALA137     -0.1977
     97  CA         6.0010    6.6240   13.5580 C.3   137  ALA137      0.1597
     98  C          5.5000    7.9110   12.9060 C.2   137  ALA137      0.2287
     99  O          4.5550    8.5270   13.4000 O.2   137  ALA137     -0.2864
    100  CB         6.5130    6.9170   14.9650 C.3   137  ALA137      0.0319
    101  N          3.8970    8.0030   10.4570 N.3   139  ARG139     -0.1245
    102  CA         2.5770    7.6560    9.9520 C.3   139  ARG139      0.1563
    103  C          1.5090    7.7000   11.0510 C.2   139  ARG139      0.2260
    104  O          0.3360    7.4400   10.7870 O.2   139  ARG139     -0.2867
    105  CB         2.5980    6.2650    9.3010 C.3   139  ARG139      0.0307
    106  CG         3.5460    6.1510    8.1060 C.3   139  ARG139      0.0489
    107  CD         3.0990    5.0600    7.1330 C.3   139  ARG139      0.2205
    108  NE         3.2430    3.7050    7.6620 N.pl3 139  ARG139     -0.0865
    109  CZ         4.3300    2.9500    7.5180 C.cat 139  ARG139      0.5346
    110  NH1        5.3850    3.4170    6.8600 N.pl3 139  ARG139      0.1354
    111  NH2        4.3570    1.7170    8.0120 N.pl3 139  ARG139      0.1354
    112  N          8.3770    7.1890    5.9720 N.3   159  SER159     -0.1217
    113  CA         9.3180    6.9650    7.0610 C.3   159  SER159      0.1889
    114  C         10.3620    8.0570    7.1790 C.2   159  SER159      0.2288
    115  O         10.8100    8.6210    6.1830 O.2   159  SER159     -0.2866
    116  CB        10.0300    5.6210    6.8760 C.3   159  SER159      0.2089
    117  OG        10.9460    5.3630    7.9350 O.3   159  SER159     -0.2183
    118  N         21.7460   -6.6730   16.3800 N.3   173  LYS173     -0.1245
    119  CA        20.6140   -7.4400   16.8820 C.3   173  LYS173      0.1561
    120  C         20.4130   -8.6760   16.0050 C.2   173  LYS173      0.2260
    121  O         20.3490   -8.5700   14.7810 O.2   173  LYS173     -0.2867
    122  CB        19.3640   -6.5610   16.8510 C.3   173  LYS173      0.0271
    123  CG        18.1080   -7.2100   17.3980 C.3   173  LYS173      0.0035
    124  CD        16.9010   -6.3010   17.1960 C.3   173  LYS173      0.0206
    125  CE        17.1190   -4.9380   17.8300 C.3   173  LYS173      0.1093
    126  NZ        15.9110   -4.0760   17.7330 N.3   173  LYS173     -0.1314
    127  N         19.1420  -11.7350   13.7590 N.3   175  ARG175     -0.1245
    128  CA        18.1120  -11.7970   12.7270 C.3   175  ARG175      0.1563
    129  C         17.6460  -13.2400   12.5790 C.2   175  ARG175      0.2260
    130  O         18.3190  -14.1690   13.0260 O.2   175  ARG175     -0.2867
    131  CB        18.6700  -11.3160   11.3850 C.3   175  ARG175      0.0307
    132  CG        19.1300   -9.8650   11.3560 C.3   175  ARG175      0.0489
    133  CD        17.9650   -8.9250   11.5730 C.3   175  ARG175      0.2205
    134  NE        18.2360   -7.5750   11.0840 N.pl3 175  ARG175     -0.0865
    135  CZ        18.5840   -6.5420   11.8460 C.cat 175  ARG175      0.5346
    136  NH1       18.7170   -6.6830   13.1610 N.pl3 175  ARG175      0.1354
    137  NH2       18.7740   -5.3530   11.2860 N.pl3 175  ARG175      0.1354
@<TRIPOS>BOND
     1    62    63    1
     2    63    64    1
     3    63    66    1
     4    64    65    2
     5    66    67    1
     6    67    69    1
     7    67    68    1
     8   112   113    1
     9   115   114    2
    10   110   109    1
    11   116   113    1
    12   116   117    1
    13   113   114    1
    14   107   108    1
    15   107   106    1
    16   109   108    2
    17   109   111    1
    18   106   105    1
    19   105   102    1
    20     5     6    1
    21     5     2    1
    22    82    81    1
    23    82    83    1
    24    81    78    1
    25     6     7   ar
    26     6     8   ar
    27     7     9   ar
    28   102   101    1
    29   102   103    1
    30     1     2    1
    31     2     3    1
    32     8    10   ar
    33     9    10   ar
    34    78    77    1
    35    78    79    1
    36    87    86    2
    37   104   103    2
    38    93    92    1
    39    93    94    1
    40    83    77    1
    41    95    94    2
    42   134   133    1
    43   134   135    2
    44    84    79   am
    45    84    85    1
    46   137   135    1
    47    77    72   am
    48    86    92   am
    49    86    85    1
    50   132   131    1
    51   132   133    1
    52   131   128    1
    53    94    96   am
    54    79    80    2
    55     3     4    2
    56     3    11   am
    57   135   136    1
    58    72    73    2
    59    72    71    1
    60    85    88    1
    61    70    71    1
    62    11    12    1
    63    88    89    1
    64    88    90    1
    65   129   128    1
    66   129   130    2
    67   128   127    1
    68    71    74    1
    69    96    97    1
    70    98    99    2
    71    98    97    1
    72    89    91    1
    73    27    26    1
    74    14    13    2
    75    97   100    1
    76    12    13    1
    77    12    15    1
    78    13    22   am
    79    18    17    1
    80    18    19    2
    81    74    75    1
    82    74    76    1
    83    22    23    1
    84    23    26    1
    85    23    24    1
    86    17    16    1
    87    21    19    1
    88   121   120    2
    89    15    16    1
    90    19    20    1
    91    24    25    2
    92   120   119    1
    93   118   119    1
    94   122   119    1
    95   122   123    1
    96    47    45   am
    97    38    36    1
    98   124   123    1
    99   124   125    1
   100    51    50    2
   101    46    45    2
   102    54    56   ar
   103    54    53   ar
   104   126   125    1
   105    45    44    1
   106    56    57   ar
   107    36    35    2
   108    36    37    1
   109    50    49    1
   110    35    34    1
   111    28    29    1
   112    33    34    1
   113    33    32    1
   114    53    52    1
   115    53    55   ar
   116    52    49    1
   117    44    43    1
   118    43    40    1
   119    29    32    1
   120    29    30    1
   121    57    55   ar
   122    57    59   ar
   123    49    48    1
   124    42    41    2
   125    55    58   ar
   126    59    61   ar
   127    30    31    2
   128    39    40    1
   129    40    41    1
   130    58    60   ar
   131    61    60   ar
