@<TRIPOS>MOLECULE
tmp/1zcmA00.pdb
 152 146 0 0 0
SMALL
GASTEIGER

@<TRIPOS>ATOM
      1  N        -34.1260   13.2370   41.2300 N.3    77  GLN77      -0.1245
      2  CA       -33.1070   12.3550   41.7640 C.3    77  GLN77       0.1566
      3  C        -32.8340   12.5620   43.2430 C.2    77  GLN77       0.2260
      4  O        -32.9120   13.6870   43.7540 O.2    77  GLN77      -0.2867
      5  CB       -31.8210   12.5440   40.9730 C.3    77  GLN77       0.0367
      6  CG       -30.8120   11.4100   41.1050 C.3    77  GLN77       0.0905
      7  CD       -29.6770   11.5540   40.0910 C.2    77  GLN77       0.2608
      8  OE1      -29.8590   12.1480   39.0260 O.2    77  GLN77      -0.2717
      9  NE2      -28.5080   11.0100   40.4180 N.am   77  GLN77      -0.0878
     10  N        -26.8120    7.3310   42.3320 N.3    81  GLY81      -0.1225
     11  CA       -26.3350    7.6280   40.9940 C.3    81  GLY81       0.1811
     12  C        -27.1520    7.0260   39.8590 C.2    81  GLY81       0.2280
     13  O        -26.5750    6.5090   38.9040 O.2    81  GLY81      -0.2866
     14  N        -29.1960    8.5580   37.5630 N.3    83  CYS83      -0.1221
     15  CA       -29.6690    9.5810   36.6640 C.3    83  CYS83       0.1808
     16  C        -30.1390    8.9580   35.3520 C.2    83  CYS83       0.2601
     17  O        -31.1220    9.4010   34.7840 O.2    83  CYS83      -0.2717
     18  CB       -28.5950   10.6070   36.3770 C.3    83  CYS83       0.0970
     19  SG       -27.0990    9.9960   35.5590 S.3    83  CYS83      -0.0800
     20  N        -29.4230    7.9440   34.8780 N.am   84  TRP84      -0.1976
     21  CA       -29.7640    7.2700   33.6280 C.3    84  TRP84       0.1640
     22  C        -31.1850    6.7090   33.6560 C.2    84  TRP84       0.2290
     23  O        -31.9320    6.8370   32.6870 O.2    84  TRP84      -0.2864
     24  CB       -28.7810    6.1150   33.3620 C.3    84  TRP84       0.0576
     25  CG       -28.6830    5.1370   34.5030 C.ar   84  TRP84       0.0006
     26  CD1      -28.0020    5.3080   35.6670 C.ar   84  TRP84       0.0946
     27  CD2      -29.2840    3.8370   34.5810 C.ar   84  TRP84       0.0152
     28  NE1      -28.1320    4.2040   36.4620 N.ar   84  TRP84      -0.2442
     29  CE2      -28.9140    3.2820   35.8180 C.ar   84  TRP84       0.0810
     30  CE3      -30.0960    3.0870   33.7180 C.ar   84  TRP84       0.0012
     31  CZ2      -29.3240    2.0060   36.2210 C.ar   84  TRP84       0.0191
     32  CZ3      -30.5030    1.8210   34.1150 C.ar   84  TRP84       0.0001
     33  CH2      -30.1150    1.2930   35.3550 C.ar   84  TRP84       0.0015
     34  N        -26.7030    2.4880   40.8130 N.3   174  SER174     -0.1202
     35  CA       -25.7060    3.5440   40.7220 C.3   174  SER174      0.2020
     36  C        -24.8050    3.3420   39.5200 C.2   174  SER174      0.2619
     37  O        -24.0050    2.3980   39.4700 O.2   174  SER174     -0.2717
     38  CB       -24.8750    3.5900   42.0000 C.3   174  SER174      0.2103
     39  OG       -23.8160    4.5090   41.8450 O.3   174  SER174     -0.2182
     40  N        -24.9540    4.2220   38.5390 N.am  175  GLY175     -0.1941
     41  CA       -24.1580    4.1270   37.3310 C.3   175  GLY175      0.2017
     42  C        -24.8470    3.2770   36.2900 C.2   175  GLY175      0.2678
     43  O        -25.1710    2.1140   36.5520 O.2   175  GLY175     -0.2710
     44  N        -25.0700    3.8390   35.1050 N.am  176  GLY176     -0.1716
     45  CA       -25.7370    3.0660   34.0790 C.2   176  GLY176      0.1480
     46  C        -25.9650    3.7770   32.7680 C.2   176  GLY176      0.2821
     47  O        -25.5580    4.9320   32.5710 O.2   176  GLY176     -0.2669
     48  N        -26.6610    3.0830   31.8730 N.am  177  SER177     -0.1901
     49  CA       -26.9480    3.5970   30.5370 C.3   177  SER177      0.2058
     50  C        -28.4270    3.9640   30.3730 C.2   177  SER177      0.2643
     51  O        -29.3210    3.1580   30.6420 O.2   177  SER177     -0.2714
     52  CB       -26.5600    2.5340   29.5070 C.3   177  SER177      0.2130
     53  OG       -26.9390    2.9230   28.1980 O.3   177  SER177     -0.2179
     54  N        -28.6840    5.1780   29.9200 N.am  178  THR178     -0.1950
     55  CA       -30.0580    5.6240   29.7330 C.3   178  THR178      0.1897
     56  C        -30.7160    4.7110   28.6900 C.2   178  THR178      0.2313
     57  O        -31.9060    4.4300   28.7750 O.2   178  THR178     -0.2863
     58  CB       -30.0930    7.0910   29.2660 C.3   178  THR178      0.1794
     59  OG1      -29.2300    7.8660   30.1040 O.3   178  THR178     -0.2208
     60  CG2      -31.5120    7.6660   29.3790 C.3   178  THR178      0.0378
     61  N        -29.8340   12.6170   26.4000 N.3   218  CYS218     -0.1221
     62  CA       -28.5780   13.1760   25.9270 C.3   218  CYS218      0.1808
     63  C        -27.6550   13.3540   27.1100 C.2   218  CYS218      0.2602
     64  O        -28.0850   13.3270   28.2590 O.2   218  CYS218     -0.2717
     65  CB       -28.7920   14.5180   25.1870 C.3   218  CYS218      0.0970
     66  SG       -29.6180   15.8140   26.1270 S.3   218  CYS218     -0.0800
     67  N        -26.3700   13.4980   26.8330 N.am  219  SER219     -0.1938
     68  CA       -25.4150   13.6690   27.9140 C.3   219  SER219      0.2055
     69  C        -24.1370   14.3070   27.3940 C.2   219  SER219      0.2643
     70  O        -23.9330   14.4120   26.1810 O.2   219  SER219     -0.2714
     71  CB       -25.0990   12.3130   28.5590 C.3   219  SER219      0.2130
     72  OG       -24.4370   11.4590   27.6400 O.3   219  SER219     -0.2179
     73  N        -23.2890   14.7520   28.3200 N.am  220  ILE220     -0.1963
     74  CA       -22.0120   15.3450   27.9530 C.3   220  ILE220      0.1727
     75  C        -20.9490   14.3570   28.4120 C.2   220  ILE220      0.2616
     76  O        -20.9430   13.9340   29.5710 O.2   220  ILE220     -0.2715
     77  CB       -21.7940   16.6810   28.6610 C.3   220  ILE220      0.0290
     78  CG1      -22.9500   17.6250   28.3190 C.3   220  ILE220      0.0022
     79  CG2      -20.4420   17.2770   28.2390 C.3   220  ILE220      0.0023
     80  CD1      -23.0080   18.8660   29.1970 C.3   220  ILE220      0.0001
     81  N        -20.0500   13.9860   27.5080 N.am  221  ASP221     -0.1957
     82  CA       -19.0290   13.0290   27.8710 C.3   221  ASP221      0.1840
     83  C        -18.0450   13.6130   28.8720 C.2   221  ASP221      0.2621
     84  O        -17.7660   14.8130   28.8720 O.2   221  ASP221     -0.2715
     85  CB       -18.3040   12.5290   26.6170 C.3   221  ASP221      0.1450
     86  CG       -19.1230   11.5080   25.8400 C.2   221  ASP221      0.3671
     87  OD1      -19.3970   10.4180   26.3880 O.co2 221  ASP221     -0.2456
     88  OD2      -19.4960   11.7890   24.6850 O.co2 221  ASP221     -0.2456
     89  N        -17.5500   12.7350   29.7380 N.am  222  ILE222     -0.1977
     90  CA       -16.5970   13.0720   30.7820 C.3   222  ILE222      0.1596
     91  C        -15.2820   12.3590   30.5280 C.2   222  ILE222      0.2287
     92  O        -15.1720   11.1390   30.7080 O.2   222  ILE222     -0.2864
     93  CB       -17.1470   12.6590   32.1510 C.3   222  ILE222      0.0276
     94  CG1      -18.0050   13.7890   32.6980 C.3   222  ILE222      0.0022
     95  CG2      -16.0220   12.2830   33.1020 C.3   222  ILE222      0.0022
     96  CD1      -18.7200   13.4180   33.9560 C.3   222  ILE222      0.0001
     97  N        -17.4210   13.6460   37.0970 N.3   228  MET228     -0.1230
     98  CA       -18.7290   13.0030   37.0300 C.3   228  MET228      0.1702
     99  C        -19.7040   13.9520   37.7180 C.2   228  MET228      0.2592
    100  O        -19.5060   14.3040   38.8720 O.2   228  MET228     -0.2718
    101  CB       -18.6860   11.6540   37.7720 C.3   228  MET228      0.0401
    102  CG       -17.2730   11.2190   38.2070 C.3   228  MET228      0.0596
    103  SD       -16.5860    9.7670   37.3230 S.3   228  MET228     -0.1393
    104  CE       -16.1580    8.7050   38.7120 C.3   228  MET228      0.0692
    105  N        -20.7520   14.3550   37.0060 N.am  229  GLU229     -0.1979
    106  CA       -21.7520   15.2910   37.5230 C.3   229  GLU229      0.1602
    107  C        -21.1710   16.6720   37.8850 C.2   229  GLU229      0.2287
    108  O        -21.6730   17.3600   38.7730 O.2   229  GLU229     -0.2864
    109  CB       -22.5080   14.6710   38.7140 C.3   229  GLU229      0.0415
    110  CG       -23.6290   13.6890   38.2720 C.3   229  GLU229      0.1163
    111  CD       -24.3240   12.9830   39.4350 C.2   229  GLU229      0.3649
    112  OE1      -23.6290   12.2800   40.2010 O.co2 229  GLU229     -0.2457
    113  OE2      -25.5650   13.1210   39.5800 O.co2 229  GLU229     -0.2457
    114  N        -21.4200   14.0210   32.3480 N.3   239  GLY239     -0.1210
    115  CA       -21.5700   12.6160   32.7290 C.3   239  GLY239      0.1956
    116  C        -22.8930   12.4050   33.4340 C.2   239  GLY239      0.2612
    117  O        -23.0300   11.5710   34.3340 O.2   239  GLY239     -0.2717
    118  N        -23.8890   13.1460   32.9770 N.am  240  HIS240     -0.1961
    119  CA       -25.2040   13.1270   33.5960 C.3   240  HIS240      0.1787
    120  C        -26.3000   12.9410   32.5430 C.2   240  HIS240      0.2620
    121  O        -26.3190   13.6340   31.5220 O.2   240  HIS240     -0.2715
    122  CB       -25.3820   14.4580   34.3380 C.3   240  HIS240      0.0785
    123  CG       -26.6590   14.5660   35.1050 C.ar  240  HIS240      0.0821
    124  ND1      -27.0240   13.6610   36.0710 N.ar  240  HIS240     -0.2267
    125  CD2      -27.6280   15.5110   35.0890 C.ar  240  HIS240      0.1154
    126  CE1      -28.1610   14.0430   36.6240 C.ar  240  HIS240      0.1986
    127  NE2      -28.5480   15.1650   36.0470 N.ar  240  HIS240     -0.2212
    128  N        -27.2070   12.0080   32.7970 N.am  241  ALA241     -0.1977
    129  CA       -28.2960   11.7300   31.8570 C.3   241  ALA241      0.1597
    130  C        -29.4100   12.7670   31.8570 C.2   241  ALA241      0.2287
    131  O        -30.0590   12.9770   32.8750 O.2   241  ALA241     -0.2864
    132  CB       -28.9050   10.3600   32.1540 C.3   241  ALA241      0.0319
    133  N        -23.5720   13.3970   23.1810 N.3   315  ARG315     -0.1245
    134  CA       -24.3210   12.2800   22.6630 C.3   315  ARG315      0.1563
    135  C        -25.8100   12.3760   22.8580 C.2   315  ARG315      0.2260
    136  O        -26.3050   13.0110   23.8020 O.2   315  ARG315     -0.2867
    137  CB       -23.7910   10.9580   23.2240 C.3   315  ARG315      0.0307
    138  CG       -23.2790   10.9890   24.6390 C.3   315  ARG315      0.0489
    139  CD       -22.5420    9.6860   24.9090 C.3   315  ARG315      0.2205
    140  NE       -23.3680    8.5270   24.5720 N.pl3 315  ARG315     -0.0865
    141  CZ       -22.8850    7.3320   24.2440 C.cat 315  ARG315      0.5346
    142  NH1      -21.5760    7.1290   24.2040 N.pl3 315  ARG315      0.1354
    143  NH2      -23.7110    6.3420   23.9480 N.pl3 315  ARG315      0.1354
    144  N        -29.4000    9.8590   22.4500 N.3   317  GLU317     -0.1245
    145  CA       -29.9110    8.5070   22.3500 C.3   317  GLU317      0.1567
    146  C        -31.3730    8.5870   22.0220 C.2   317  GLU317      0.2260
    147  O        -32.1320    9.3600   22.6360 O.2   317  GLU317     -0.2867
    148  CB       -29.7360    7.7580   23.6650 C.3   317  GLU317      0.0388
    149  CG       -28.3030    7.7100   24.1450 C.3   317  GLU317      0.1160
    150  CD       -28.2170    7.7440   25.6550 C.2   317  GLU317      0.3649
    151  OE1      -28.6380    8.7680   26.2440 O.co2 317  GLU317     -0.2457
    152  OE2      -27.7450    6.7530   26.2490 O.co2 317  GLU317     -0.2457
@<TRIPOS>BOND
     1   146   145    1
     2   146   147    2
     3   145   144    1
     4   145   148    1
     5   134   135    1
     6   134   133    1
     7   134   137    1
     8   135   136    2
     9   137   138    1
    10   148   149    1
    11   143   141    1
    12   149   150    1
    13   142   141    1
    14   141   140    2
    15   140   139    1
    16   138   139    1
    17    88    86   ar
    18    65    62    1
    19    65    66    1
    20   150   151   ar
    21   150   152   ar
    22    86    87   ar
    23    86    85    1
    24    62    61    1
    25    62    63    1
    26    70    69    2
    27    85    82    1
    28    67    63   am
    29    67    68    1
    30    63    64    2
    31    69    68    1
    32    69    73   am
    33    81    82    1
    34    81    75   am
    35    72    71    1
    36    82    83    1
    37    68    71    1
    38    74    73    1
    39    74    75    1
    40    74    77    1
    41    53    52    1
    42    79    77    1
    43    78    77    1
    44    78    80    1
    45    75    76    2
    46    56    57    2
    47    56    55    1
    48    83    84    2
    49    83    89   am
    50    58    60    1
    51    58    55    1
    52    58    59    1
    53    52    49    1
    54    55    54    1
    55    89    90    1
    56    54    50   am
    57    50    49    1
    58    50    51    2
    59    91    92    2
    60    91    90    1
    61    49    48    1
    62    90    93    1
    63   121   120    2
    64   129   130    1
    65   129   132    1
    66   129   128    1
    67   130   131    2
    68    48    46   am
    69    93    94    1
    70    93    95    1
    71   114   115    1
    72   120   128   am
    73   120   119    1
    74    47    46    2
    75    23    22    2
    76    94    96    1
    77   115   116    1
    78    46    45    1
    79   118   116   am
    80   118   119    1
    81    24    21    1
    82    24    25    1
    83   116   117    2
    84   119   122    1
    85    21    22    1
    86    21    20    1
    87    30    32   ar
    88    30    27   ar
    89    45    44    2
    90    32    33   ar
    91   122   123    1
    92    25    27   ar
    93    25    26   ar
    94    27    29   ar
    95    17    16    2
    96    20    16   am
    97   125   123   ar
    98   125   127   ar
    99   123   124   ar
   100    44    42    1
   101    16    15    1
   102    33    31   ar
   103    19    18    1
   104    26    28   ar
   105    29    31   ar
   106    29    28   ar
   107   127   126   ar
   108   124   126   ar
   109    42    43    2
   110    42    41    1
   111    18    15    1
   112    15    14    1
   113   105   106    1
   114   105    99   am
   115    98    97    1
   116    98    99    1
   117    98   101    1
   118   103   102    1
   119   103   104    1
   120    41    40    1
   121   106   107    1
   122   106   109    1
   123    99   100    2
   124   101   102    1
   125   107   108    2
   126   110   109    1
   127   110   111    1
   128    40    36   am
   129    13    12    2
   130     8     7    2
   131   111   113   ar
   132   111   112   ar
   133    37    36    2
   134    36    35    1
   135    12    11    1
   136     7     9   am
   137     7     6    1
   138    35    34    1
   139    35    38    1
   140     5     6    1
   141     5     2    1
   142    11    10    1
   143     1     2    1
   144     2     3    1
   145    39    38    1
   146     3     4    2
