@<TRIPOS>MOLECULE
tmp/1zcwA00.pdb
 237 218 0 0 0
SMALL
GASTEIGER

@<TRIPOS>ATOM
      1  N         33.1980   20.3230   15.8230 N.3    45  VAL45      -0.1245
      2  CA        32.2270   21.4040   15.7980 C.3    45  VAL45       0.1561
      3  C         30.8490   20.7880   15.5640 C.2    45  VAL45       0.2260
      4  O         30.6560   20.0190   14.6280 O.2    45  VAL45      -0.2867
      5  CB        32.5360   22.4000   14.6710 C.3    45  VAL45       0.0252
      6  CG1       31.5940   23.5870   14.7620 C.3    45  VAL45       0.0019
      7  CG2       33.9750   22.8540   14.7570 C.3    45  VAL45       0.0019
      8  N         26.5690   21.8200   15.5960 N.3    47  VAL47      -0.1245
      9  CA        25.5690   22.8840   15.6640 C.3    47  VAL47       0.1561
     10  C         24.1460   22.3580   15.5370 C.2    47  VAL47       0.2260
     11  O         23.8770   21.4530   14.7370 O.2    47  VAL47      -0.2867
     12  CB        25.7750   23.9280   14.5360 C.3    47  VAL47       0.0252
     13  CG1       24.9030   25.1550   14.7930 C.3    47  VAL47       0.0019
     14  CG2       27.2260   24.3060   14.4250 C.3    47  VAL47       0.0019
     15  N         20.5780   23.8640   14.6940 N.3    49  SER49      -0.1217
     16  CA        19.8930   25.0470   14.1580 C.3    49  SER49       0.1889
     17  C         18.3730   25.0140   14.1030 C.2    49  SER49       0.2288
     18  O         17.7780   24.0310   13.6680 O.2    49  SER49      -0.2866
     19  CB        20.4060   25.3440   12.7440 C.3    49  SER49       0.2089
     20  OG        21.8230   25.3480   12.7020 O.3    49  SER49      -0.2183
     21  N         17.8240   21.2750   12.5590 N.3    60  ASP60      -0.1239
     22  CA        18.9630   20.7450   11.8340 C.3    60  ASP60       0.1674
     23  C         20.1590   20.5310   12.7550 C.2    60  ASP60       0.2266
     24  O         20.2820   21.1690   13.8050 O.2    60  ASP60      -0.2867
     25  CB        19.3780   21.7020   10.7170 C.3    60  ASP60       0.1410
     26  CG        18.4210   21.6970    9.5490 C.2    60  ASP60       0.3668
     27  OD1       17.5250   20.8450    9.4920 O.co2  60  ASP60      -0.2456
     28  OD2       18.5870   22.5480    8.6630 O.co2  60  ASP60      -0.2456
     29  N         24.5380   19.8240   12.5460 N.3    62  SER62      -0.1217
     30  CA        25.7330   19.7980   11.7250 C.3    62  SER62       0.1889
     31  C         26.8810   19.2530   12.5720 C.2    62  SER62       0.2288
     32  O         27.0790   19.6770   13.7090 O.2    62  SER62      -0.2866
     33  CB        26.0500   21.2200   11.2310 C.3    62  SER62       0.2089
     34  OG        24.8790   21.8970   10.7960 O.3    62  SER62      -0.2183
     35  N         31.0860   18.2650   12.3080 N.3    64  SER64      -0.1217
     36  CA        32.3320   18.3190   11.5480 C.3    64  SER64       0.1889
     37  C         32.9600   16.9320   11.4540 C.2    64  SER64       0.2288
     38  O         32.9350   16.1630   12.4170 O.2    64  SER64      -0.2866
     39  CB        33.3210   19.2960   12.2060 C.3    64  SER64       0.2089
     40  OG        33.6780   18.8610   13.5080 O.3    64  SER64      -0.2183
     41  N         38.5280   20.2650    6.0370 N.3   104  MET104     -0.1245
     42  CA        37.6350   19.3760    6.7750 C.3   104  MET104      0.1570
     43  C         36.2600   19.2610    6.1190 C.2   104  MET104      0.2261
     44  O         35.8880   20.0490    5.2380 O.2   104  MET104     -0.2867
     45  CB        37.5090   19.8080    8.2500 C.3   104  MET104      0.0387
     46  CG        36.3240   20.6880    8.5970 C.3   104  MET104      0.0595
     47  SD        36.3150   21.1700   10.3440 S.3   104  MET104     -0.1393
     48  CE        36.5900   22.9270   10.1850 C.3   104  MET104      0.0692
     49  N         31.9550   17.9310    6.8510 N.3   106  ALA106     -0.1245
     50  CA        30.8900   18.0800    7.8150 C.3   106  ALA106      0.1562
     51  C         29.6530   17.4140    7.2430 C.2   106  ALA106      0.2260
     52  O         29.4300   17.4110    6.0290 O.2   106  ALA106     -0.2867
     53  CB        30.6230   19.5500    8.1060 C.3   106  ALA106      0.0290
     54  N         25.3750   17.0050    7.6780 N.3   108  ASP108     -0.1239
     55  CA        24.2350   17.7750    8.1250 C.3   108  ASP108      0.1674
     56  C         22.9450   16.9760    7.9340 C.2   108  ASP108      0.2266
     57  O         22.7860   16.2820    6.9300 O.2   108  ASP108     -0.2867
     58  CB        24.1690   19.0510    7.2980 C.3   108  ASP108      0.1410
     59  CG        23.0950   19.9880    7.7640 C.2   108  ASP108      0.3668
     60  OD1       23.4410   21.0150    8.3770 O.co2 108  ASP108     -0.2456
     61  OD2       21.9110   19.6950    7.5140 O.co2 108  ASP108     -0.2456
     62  N         20.9650   14.7990    4.9760 N.3   116  LYS116     -0.1231
     63  CA        20.5690   15.5440    3.7810 C.3   116  LYS116      0.1693
     64  C         21.6890   16.3530    3.1200 C.2   116  LYS116      0.2591
     65  O         21.5550   16.7540    1.9640 O.2   116  LYS116     -0.2718
     66  CB        19.3890   16.4730    4.0860 C.3   116  LYS116      0.0285
     67  CG        19.6450   17.4680    5.1890 C.3   116  LYS116      0.0035
     68  CD        18.6230   18.5860    5.1900 C.3   116  LYS116      0.0206
     69  CE        18.9790   19.6130    6.2430 C.3   116  LYS116      0.1093
     70  NZ        18.2530   20.8910    6.0220 N.3   116  LYS116     -0.1314
     71  N         22.7890   16.5930    3.8330 N.am  117  LYS117     -0.1980
     72  CA        23.8810   17.3620    3.2430 C.3   117  LYS117      0.1596
     73  C         25.2670   17.2350    3.8570 C.2   117  LYS117      0.2287
     74  O         25.4400   16.7490    4.9770 O.2   117  LYS117     -0.2864
     75  CB        23.5040   18.8420    3.1650 C.3   117  LYS117      0.0298
     76  CG        22.7910   19.3970    4.3740 C.3   117  LYS117      0.0038
     77  CD        21.9360   20.6060    3.9900 C.3   117  LYS117      0.0206
     78  CE        22.7870   21.7030    3.3770 C.3   117  LYS117      0.1093
     79  NZ        23.9020   22.0460    4.2940 N.3   117  LYS117     -0.1314
     80  N         29.3750   19.2870    3.8390 N.3   119  TYR119     -0.1241
     81  CA        30.0820   20.5350    3.6460 C.3   119  TYR119      0.1605
     82  C         31.5220   20.2100    3.2720 C.2   119  TYR119      0.2264
     83  O         32.0230   19.1180    3.5630 O.2   119  TYR119     -0.2867
     84  CB        30.1120   21.3790    4.9330 C.3   119  TYR119      0.0534
     85  CG        28.7720   21.8480    5.4350 C.ar  119  TYR119     -0.0201
     86  CD1       27.8960   20.9730    6.0680 C.ar  119  TYR119     -0.0009
     87  CD2       28.3670   23.1750    5.2590 C.ar  119  TYR119     -0.0009
     88  CE1       26.6410   21.4030    6.5040 C.ar  119  TYR119      0.0417
     89  CE2       27.1180   23.6090    5.6890 C.ar  119  TYR119      0.0417
     90  CZ        26.2630   22.7160    6.3120 C.ar  119  TYR119      0.1957
     91  OH        25.0140   23.1470    6.7150 O.3   119  TYR119     -0.2866
     92  N         35.0470   22.3070    3.7330 N.3   121  PHE121     -0.1241
     93  CA        35.7340   23.5000    4.2210 C.3   121  PHE121      0.1605
     94  C         37.0690   23.6660    3.5050 C.2   121  PHE121      0.2264
     95  O         37.7300   22.6760    3.1850 O.2   121  PHE121     -0.2867
     96  CB        36.0040   23.4020    5.7280 C.3   121  PHE121      0.0534
     97  CG        34.7710   23.4340    6.5740 C.ar  121  PHE121     -0.0203
     98  CD1       33.9270   22.3260    6.6340 C.ar  121  PHE121     -0.0042
     99  CD2       34.4310   24.5830    7.2850 C.ar  121  PHE121     -0.0042
    100  CE1       32.7560   22.3560    7.3860 C.ar  121  PHE121     -0.0003
    101  CE2       33.2570   24.6300    8.0460 C.ar  121  PHE121     -0.0003
    102  CZ        32.4170   23.5130    8.0940 C.ar  121  PHE121     -0.0000
    103  N         33.8190   27.9070    2.3140 N.3   160  MET160     -0.1245
    104  CA        33.2920   26.5380    2.3170 C.3   160  MET160      0.1570
    105  C         32.0950   26.4140    1.3710 C.2   160  MET160      0.2261
    106  O         31.5600   27.4160    0.9000 O.2   160  MET160     -0.2867
    107  CB        32.8600   26.1310    3.7400 C.3   160  MET160      0.0387
    108  CG        31.5920   26.8260    4.2250 C.3   160  MET160      0.0595
    109  SD        31.1990   26.6510    5.9760 S.3   160  MET160     -0.1393
    110  CE        31.2110   28.3420    6.5060 C.3   160  MET160      0.0692
    111  N         23.2950   19.8800   -0.8350 N.3   164  ASP164     -0.1239
    112  CA        22.0130   19.3860   -0.3350 C.3   164  ASP164      0.1674
    113  C         21.5120   18.3080   -1.3010 C.2   164  ASP164      0.2266
    114  O         21.0080   18.6170   -2.3760 O.2   164  ASP164     -0.2867
    115  CB        20.9820   20.5180   -0.2500 C.3   164  ASP164      0.1410
    116  CG        19.7080   20.1020    0.4990 C.2   164  ASP164      0.3668
    117  OD1       19.1830   19.0040    0.2520 O.co2 164  ASP164     -0.2456
    118  OD2       19.2270   20.8880    1.3270 O.co2 164  ASP164     -0.2456
    119  N         17.4130   18.2770   -2.0540 N.3   167  LYS167     -0.1245
    120  CA        16.9300   19.3720   -2.8820 C.3   167  LYS167      0.1561
    121  C         17.8360   19.6210   -4.0920 C.2   167  LYS167      0.2260
    122  O         17.4910   20.3930   -4.9830 O.2   167  LYS167     -0.2867
    123  CB        16.8380   20.6590   -2.0560 C.3   167  LYS167      0.0271
    124  CG        15.8620   20.5950   -0.8940 C.3   167  LYS167      0.0035
    125  CD        15.8240   21.9090   -0.1260 C.3   167  LYS167      0.0206
    126  CE        14.8830   21.8130    1.0670 C.3   167  LYS167      0.1093
    127  NZ        14.7840   23.1010    1.8160 N.3   167  LYS167     -0.1314
    128  N         25.4720   25.6190   -1.8300 N.3   171  ASN171     -0.1240
    129  CA        25.6670   26.9510   -1.2620 C.3   171  ASN171      0.1653
    130  C         27.1540   27.3010   -1.3880 C.2   171  ASN171      0.2266
    131  O         28.0160   26.4300   -1.3170 O.2   171  ASN171     -0.2867
    132  CB        25.2840   26.9880    0.2220 C.3   171  ASN171      0.1155
    133  CG        23.7830   26.8610    0.4540 C.2   171  ASN171      0.2627
    134  OD1       22.9800   26.9120   -0.4880 O.2   171  ASN171     -0.2716
    135  ND2       23.3960   26.7060    1.7220 N.am  171  ASN171     -0.0877
    136  N         29.7110   29.7790    0.4400 N.3   173  TYR173     -0.1241
    137  CA        29.8310   30.6580    1.5990 C.3   173  TYR173      0.1605
    138  C         30.9590   31.6540    1.3980 C.2   173  TYR173      0.2264
    139  O         32.1280   31.3540    1.6620 O.2   173  TYR173     -0.2867
    140  CB        30.0830   29.8110    2.8600 C.3   173  TYR173      0.0534
    141  CG        28.9370   28.8780    3.1860 C.ar  173  TYR173     -0.0201
    142  CD1       28.7790   27.6770    2.5020 C.ar  173  TYR173     -0.0009
    143  CD2       27.9720   29.2310    4.1310 C.ar  173  TYR173     -0.0009
    144  CE1       27.6860   26.8490    2.7400 C.ar  173  TYR173      0.0417
    145  CE2       26.8750   28.4090    4.3760 C.ar  173  TYR173      0.0417
    146  CZ        26.7380   27.2200    3.6770 C.ar  173  TYR173      0.1957
    147  OH        25.6550   26.4000    3.9160 O.3   173  TYR173     -0.2866
    148  N         29.2740   38.2730    8.5210 N.3   211  PHE211     -0.1241
    149  CA        30.6620   37.8530    8.3620 C.3   211  PHE211      0.1605
    150  C         30.6930   36.8170    7.2440 C.2   211  PHE211      0.2264
    151  O         31.7560   36.4050    6.7820 O.2   211  PHE211     -0.2867
    152  CB        31.1960   37.2300    9.6600 C.3   211  PHE211      0.0534
    153  CG        30.7040   35.8260    9.9180 C.ar  211  PHE211     -0.0203
    154  CD1       31.4900   34.7210    9.5940 C.ar  211  PHE211     -0.0042
    155  CD2       29.4590   35.6100   10.4970 C.ar  211  PHE211     -0.0042
    156  CE1       31.0400   33.4200    9.8500 C.ar  211  PHE211     -0.0003
    157  CE2       29.0020   34.3200   10.7540 C.ar  211  PHE211     -0.0003
    158  CZ        29.7960   33.2290   10.4300 C.ar  211  PHE211     -0.0000
    159  N         25.8430   33.6650    1.6880 N.3   214  TYR214     -0.1241
    160  CA        25.7950   32.5440    0.7770 C.3   214  TYR214      0.1605
    161  C         24.5530   32.3820   -0.0640 C.2   214  TYR214      0.2264
    162  O         23.4360   32.3190    0.4480 O.2   214  TYR214     -0.2867
    163  CB        26.0400   31.2350    1.5280 C.3   214  TYR214      0.0534
    164  CG        25.1770   30.9980    2.7560 C.ar  214  TYR214     -0.0201
    165  CD1       24.1100   30.0930    2.7230 C.ar  214  TYR214     -0.0009
    166  CD2       25.4980   31.5910    3.9730 C.ar  214  TYR214     -0.0009
    167  CE1       23.3930   29.7650    3.8810 C.ar  214  TYR214      0.0417
    168  CE2       24.7910   31.2770    5.1370 C.ar  214  TYR214      0.0417
    169  CZ        23.7480   30.3630    5.0890 C.ar  214  TYR214      0.1957
    170  OH        23.0940   30.0100    6.2570 O.3   214  TYR214     -0.2866
    171  N         22.2320   30.2260   -2.8590 N.3   216  THR216     -0.1218
    172  CA        21.9240   28.8170   -3.1040 C.3   216  THR216      0.1862
    173  C         21.7070   28.6750   -4.6220 C.2   216  THR216      0.2287
    174  O         21.0080   29.4790   -5.2280 O.2   216  THR216     -0.2866
    175  CB        20.6330   28.3840   -2.3590 C.3   216  THR216      0.1770
    176  OG1       20.8360   28.4690   -0.9410 O.3   216  THR216     -0.2211
    177  CG2       20.2560   26.9610   -2.7280 C.3   216  THR216      0.0375
    178  N         18.0190   31.4090   -3.4400 N.3   226  ARG226     -0.1245
    179  CA        17.8910   32.2770   -2.2820 C.3   226  ARG226      0.1563
    180  C         19.2620   32.7860   -1.8710 C.2   226  ARG226      0.2260
    181  O         20.2750   32.3440   -2.4070 O.2   226  ARG226     -0.2867
    182  CB        17.1780   31.5450   -1.1200 C.3   226  ARG226      0.0307
    183  CG        17.6840   30.1530   -0.8110 C.3   226  ARG226      0.0489
    184  CD        16.8640   29.4770    0.2990 C.3   226  ARG226      0.2205
    185  NE        17.6340   28.3960    0.9220 N.pl3 226  ARG226     -0.0865
    186  CZ        17.7530   27.1630    0.4340 C.cat 226  ARG226      0.5346
    187  NH1       17.1370   26.8230   -0.6900 N.pl3 226  ARG226      0.1354
    188  NH2       18.5270   26.2780    1.0530 N.pl3 226  ARG226      0.1354
    189  N         25.0380   31.6820   15.6780 N.3   269  VAL269     -0.1245
    190  CA        25.1400   32.1300   14.3000 C.3   269  VAL269      0.1561
    191  C         23.7180   32.3350   13.8090 C.2   269  VAL269      0.2260
    192  O         22.9470   31.3820   13.6900 O.2   269  VAL269     -0.2867
    193  CB        25.8900   31.1030   13.4010 C.3   269  VAL269      0.0252
    194  CG1       25.8360   31.5440   11.9480 C.3   269  VAL269      0.0019
    195  CG2       27.3650   31.0110   13.8300 C.3   269  VAL269      0.0019
    196  N         13.0610   34.4270    5.8950 N.3   280  TYR280     -0.1241
    197  CA        12.8850   33.6740    7.1170 C.3   280  TYR280      0.1605
    198  C         14.1900   33.7610    7.8800 C.2   280  TYR280      0.2264
    199  O         15.2250   34.1230    7.3260 O.2   280  TYR280     -0.2867
    200  CB        12.4250   32.2220    6.8550 C.3   280  TYR280      0.0534
    201  CG        13.4210   31.2670    6.2400 C.ar  280  TYR280     -0.0201
    202  CD1       14.3570   30.5910    7.0310 C.ar  280  TYR280     -0.0009
    203  CD2       13.3990   31.0030    4.8650 C.ar  280  TYR280     -0.0009
    204  CE1       15.2440   29.6730    6.4660 C.ar  280  TYR280      0.0417
    205  CE2       14.2810   30.0890    4.2910 C.ar  280  TYR280      0.0417
    206  CZ        15.1990   29.4300    5.0960 C.ar  280  TYR280      0.1957
    207  OH        16.0780   28.5360    4.5270 O.3   280  TYR280     -0.2866
    208  N         16.9570   32.0620   10.8420 N.3   282  LYS282     -0.1245
    209  CA        17.4230   30.8410   11.4640 C.3   282  LYS282      0.1561
    210  C         18.4850   31.1750   12.4840 C.2   282  LYS282      0.2260
    211  O         19.0730   32.2570   12.4640 O.2   282  LYS282     -0.2867
    212  CB        17.9440   29.8340   10.4330 C.3   282  LYS282      0.0271
    213  CG        18.8380   30.3780    9.3580 C.3   282  LYS282      0.0035
    214  CD        18.7770   29.4590    8.1530 C.3   282  LYS282      0.0206
    215  CE        19.5720   30.0280    6.9990 C.3   282  LYS282      0.1093
    216  NZ        19.2530   29.3030    5.7180 N.3   282  LYS282     -0.1314
    217  N         25.8330   26.5620   18.7540 N.3   286  TYR286     -0.1241
    218  CA        26.9230   25.6020   18.7760 C.3   286  TYR286      0.1605
    219  C         26.9990   24.7810   20.0590 C.2   286  TYR286      0.2264
    220  O         26.9550   25.3140   21.1660 O.2   286  TYR286     -0.2867
    221  CB        28.2420   26.3330   18.5060 C.3   286  TYR286      0.0534
    222  CG        28.4450   26.7030   17.0400 C.ar  286  TYR286     -0.0201
    223  CD1       27.5530   27.5470   16.3760 C.ar  286  TYR286     -0.0009
    224  CD2       29.5110   26.1840   16.3130 C.ar  286  TYR286     -0.0009
    225  CE1       27.7170   27.8650   15.0210 C.ar  286  TYR286      0.0417
    226  CE2       29.6870   26.4940   14.9560 C.ar  286  TYR286      0.0417
    227  CZ        28.7900   27.3310   14.3190 C.ar  286  TYR286      0.1957
    228  OH        28.9750   27.6180   12.9820 O.3   286  TYR286     -0.2866
    229  N         35.8430   29.4610   15.8440 N.3   293  GLN293     -0.1245
    230  CA        34.6640   30.1970   16.2870 C.3   293  GLN293      0.1566
    231  C         35.1050   31.3290   17.2110 C.2   293  GLN293      0.2260
    232  O         34.6090   32.4510   17.1120 O.2   293  GLN293     -0.2867
    233  CB        33.6890   29.2640   17.0260 C.3   293  GLN293      0.0367
    234  CG        32.8680   28.3260   16.1330 C.3   293  GLN293      0.0905
    235  CD        33.7110   27.3100   15.3700 C.2   293  GLN293      0.2608
    236  OE1       33.5570   27.1510   14.1550 O.2   293  GLN293     -0.2717
    237  NE2       34.5950   26.6120   16.0760 N.am  293  GLN293     -0.0878
@<TRIPOS>BOND
     1   174   173    2
     2   122   121    2
     3   173   172    1
     4   121   120    1
     5   178   179    1
     6   172   171    1
     7   172   175    1
     8   120   123    1
     9   120   119    1
    10   177   175    1
    11   181   180    2
    12   114   113    2
    13   175   176    1
    14   179   180    1
    15   179   182    1
    16   123   124    1
    17   128   129    1
    18   130   131    2
    19   130   129    1
    20   113   112    1
    21   129   132    1
    22   182   183    1
    23   124   125    1
    24   111   112    1
    25   183   184    1
    26   187   186    1
    27   134   133    2
    28   112   115    1
    29   115   116    1
    30   125   126    1
    31   161   162    2
    32   161   160    1
    33   132   133    1
    34   117   116   ar
    35   184   185    1
    36   186   185    2
    37   186   188    1
    38   136   137    1
    39   133   135   am
    40   116   118   ar
    41   160   163    1
    42   160   159    1
    43   106   105    2
    44   126   127    1
    45   105   104    1
    46   138   137    1
    47   138   139    2
    48   163   164    1
    49   137   140    1
    50    65    64    2
    51   103   104    1
    52   104   107    1
    53   142   144   ar
    54   142   141   ar
    55   165   164   ar
    56   165   167   ar
    57   144   146   ar
    58   164   166   ar
    59   140   141    1
    60    64    63    1
    61    64    71   am
    62    75    72    1
    63    75    76    1
    64    95    94    2
    65   141   143   ar
    66    72    71    1
    67    72    73    1
    68    82    83    2
    69    82    81    1
    70    78    77    1
    71    78    79    1
    72    94    93    1
    73    81    80    1
    74    81    84    1
    75   146   147    1
    76   146   145   ar
    77    92    93    1
    78   107   108    1
    79    63    66    1
    80    63    62    1
    81    73    74    2
    82   167   169   ar
    83   166   168   ar
    84    77    76    1
    85    66    67    1
    86   143   145   ar
    87    93    96    1
    88   108   109    1
    89   205   203   ar
    90   205   206   ar
    91   207   206    1
    92   203   201   ar
    93    84    85    1
    94   169   168   ar
    95   169   170    1
    96   206   204   ar
    97    67    68    1
    98    68    69    1
    99    44    43    2
   100    87    85   ar
   101    87    89   ar
   102    85    86   ar
   103    89    90   ar
   104   216   215    1
   105    96    97    1
   106   196   197    1
   107   109   110    1
   108    70    69    1
   109    52    51    2
   110    41    42    1
   111    86    88   ar
   112    43    42    1
   113   201   200    1
   114   201   202   ar
   115    90    88   ar
   116    90    91    1
   117   204   202   ar
   118    97    98   ar
   119    97    99   ar
   120    98   100   ar
   121    42    45    1
   122   151   150    2
   123    49    50    1
   124   200   197    1
   125    57    56    2
   126   215   214    1
   127   197   198    1
   128    51    50    1
   129   150   149    1
   130    99   101   ar
   131    58    59    1
   132    58    55    1
   133   199   198    2
   134   100   102   ar
   135    61    59   ar
   136    54    55    1
   137    59    60   ar
   138    50    53    1
   139    56    55    1
   140   101   102   ar
   141   214   213    1
   142    45    46    1
   143   149   148    1
   144   149   152    1
   145    46    47    1
   146    28    26   ar
   147   213   212    1
   148    27    26   ar
   149    26    25    1
   150   154   156   ar
   151   154   153   ar
   152   152   153    1
   153   156   158   ar
   154   153   155   ar
   155    48    47    1
   156   158   157   ar
   157   212   209    1
   158   155   157   ar
   159    25    22    1
   160    34    33    1
   161   208   209    1
   162    33    30    1
   163    37    36    1
   164    37    38    2
   165   209   210    1
   166    36    39    1
   167    36    35    1
   168    30    29    1
   169    30    31    1
   170    22    21    1
   171    22    23    1
   172   194   193    1
   173    39    40    1
   174   211   210    2
   175    31    32    2
   176    20    19    1
   177    19    16    1
   178    23    24    2
   179   228   227    1
   180   193   195    1
   181   193   190    1
   182    18    17    2
   183   192   191    2
   184   191   190    1
   185    17    16    1
   186   236   235    2
   187    16    15    1
   188   190   189    1
   189   227   226   ar
   190   227   225   ar
   191    14    12    1
   192    12    13    1
   193    12     9    1
   194     4     3    2
   195     5     7    1
   196     5     6    1
   197     5     2    1
   198    11    10    2
   199   226   224   ar
   200   225   223   ar
   201   235   237   am
   202   235   234    1
   203    10     9    1
   204     3     2    1
   205     8     9    1
   206     2     1    1
   207   229   230    1
   208   234   233    1
   209   230   233    1
   210   230   231    1
   211   224   222   ar
   212   223   222   ar
   213   222   221    1
   214   232   231    2
   215   221   218    1
   216   217   218    1
   217   218   219    1
   218   219   220    2
