@<TRIPOS>MOLECULE
tmp/1zczB00.pdb
 79 76 0 0 0
SMALL
GASTEIGER

@<TRIPOS>ATOM
      1  N         13.7960   -5.2710    9.8810 N.3   150  SER150     -0.1217
      2  CA        13.1590   -5.6770    8.5990 C.3   150  SER150      0.1889
      3  C         14.2140   -5.9260    7.5530 C.2   150  SER150      0.2288
      4  O         14.1830   -6.9530    6.8440 O.2   150  SER150     -0.2866
      5  CB        12.1410   -4.6290    8.1310 C.3   150  SER150      0.2089
      6  OG        11.5200   -5.0090    6.9070 O.3   150  SER150     -0.2183
      7  N         15.1220   -9.5780    5.6760 N.3   154  ASN154     -0.1240
      8  CA        15.2180   -9.7690    4.2400 C.3   154  ASN154      0.1653
      9  C         16.5810  -10.2810    3.7420 C.2   154  ASN154      0.2266
     10  O         16.6620  -10.8590    2.6810 O.2   154  ASN154     -0.2867
     11  CB        14.7680   -8.5000    3.5230 C.3   154  ASN154      0.1155
     12  CG        13.2820   -8.2270    3.7280 C.2   154  ASN154      0.2627
     13  OD1       12.4930   -9.1690    3.8330 O.2   154  ASN154     -0.2716
     14  ND2       12.8890   -6.9440    3.7690 N.am  154  ASN154     -0.0877
     15  N         14.5630  -13.2970    1.3240 N.3   158  GLU158     -0.1231
     16  CA        14.0920  -12.1480    0.5220 C.3   158  GLU158      0.1699
     17  C         12.5630  -11.9580    0.5680 C.2   158  GLU158      0.2592
     18  O         11.7990  -12.9200    0.4490 O.2   158  GLU158     -0.2718
     19  CB        14.5500  -12.2790   -0.9330 C.3   158  GLU158      0.0402
     20  CG        13.9730  -11.2080   -1.8510 C.3   158  GLU158      0.1161
     21  CD        14.3160  -11.4380   -3.2990 C.2   158  GLU158      0.3649
     22  OE1       15.4990  -11.2490   -3.6470 O.co2 158  GLU158     -0.2457
     23  OE2       13.3980  -11.8020   -4.0770 O.co2 158  GLU158     -0.2457
     24  N         12.1360  -10.7300    0.8220 N.am  159  GLY159     -0.1957
     25  CA        10.7190  -10.3620    0.8870 C.3   159  GLY159      0.1869
     26  C          9.8940  -10.7990    2.0800 C.2   159  GLY159      0.2309
     27  O          8.6740  -10.6510    2.0620 O.2   159  GLY159     -0.2863
     28  N          9.7390   -9.4600    5.0140 N.3   161  SER161     -0.1202
     29  CA         9.3990   -8.3150    5.8620 C.3   161  SER161      0.2020
     30  C          9.3120   -7.0480    5.0660 C.2   161  SER161      0.2619
     31  O         10.0600   -6.8400    4.0960 O.2   161  SER161     -0.2717
     32  CB        10.4680   -8.0790    6.9380 C.3   161  SER161      0.2103
     33  OG        10.4240   -9.0630    7.9390 O.3   161  SER161     -0.2182
     34  N          8.3920   -6.1890    5.4950 N.am  162  LEU162     -0.1965
     35  CA         8.2060   -4.8820    4.9140 C.3   162  LEU162      0.1728
     36  C          8.0690   -3.9120    6.0720 C.2   162  LEU162      0.2616
     37  O          7.3210   -4.1630    7.0090 O.2   162  LEU162     -0.2715
     38  CB         6.9750   -4.8590    4.0010 C.3   162  LEU162      0.0311
     39  CG         6.6250   -3.5540    3.2790 C.3   162  LEU162      0.0022
     40  CD1        5.9480   -3.7520    1.9460 C.3   162  LEU162      0.0001
     41  CD2        5.7430   -2.7090    4.1690 C.3   162  LEU162      0.0001
     42  N          8.7760   -2.7920    5.9930 N.am  163  ALA163     -0.1963
     43  CA         8.7100   -1.8030    7.0560 C.3   163  ALA163      0.1728
     44  C          9.1030   -0.4240    6.5850 C.2   163  ALA163      0.2616
     45  O         10.0120   -0.2640    5.7490 O.2   163  ALA163     -0.2715
     46  CB         9.6040   -2.2280    8.2360 C.3   163  ALA163      0.0334
     47  N          8.4100    0.5810    7.1220 N.am  164  PHE164     -0.1974
     48  CA         8.6360    1.9760    6.7200 C.3   164  PHE164      0.1639
     49  C          8.5480    2.8610    7.9470 C.2   164  PHE164      0.2290
     50  O          7.8670    2.5210    8.9150 O.2   164  PHE164     -0.2864
     51  CB         7.5710    2.4880    5.7490 C.3   164  PHE164      0.0560
     52  CG         7.6770    1.9780    4.3380 C.ar  164  PHE164     -0.0200
     53  CD1        8.5790    2.5270    3.4340 C.ar  164  PHE164     -0.0042
     54  CD2        6.7950    0.9910    3.8800 C.ar  164  PHE164     -0.0042
     55  CE1        8.6320    2.0790    2.1380 C.ar  164  PHE164     -0.0003
     56  CE2        6.8510    0.5350    2.5820 C.ar  164  PHE164     -0.0003
     57  CZ         7.7710    1.0880    1.6990 C.ar  164  PHE164     -0.0000
     58  N          5.0800   -0.4350   -8.1610 N.3   308  TRP308     -0.1241
     59  CA         4.2860   -1.5310   -7.6090 C.3   308  TRP308      0.1605
     60  C          2.7960   -1.2260   -7.7940 C.2   308  TRP308      0.2264
     61  O          2.3030   -0.1330   -7.4570 O.2   308  TRP308     -0.2867
     62  CB         4.5580   -1.7270   -6.1010 C.3   308  TRP308      0.0550
     63  CG         5.9650   -2.0150   -5.7890 C.ar  308  TRP308      0.0003
     64  CD1        6.9370   -1.1000   -5.4580 C.ar  308  TRP308      0.0946
     65  CD2        6.6050   -3.2890   -5.8040 C.ar  308  TRP308      0.0152
     66  NE1        8.1240   -1.7260   -5.2660 N.ar  308  TRP308     -0.2442
     67  CE2        7.9680   -3.0720   -5.4940 C.ar  308  TRP308      0.0810
     68  CE3        6.1730   -4.5900   -6.0780 C.ar  308  TRP308      0.0012
     69  CZ2        8.8910   -4.1100   -5.4260 C.ar  308  TRP308      0.0191
     70  CZ3        7.0860   -5.6250   -5.9880 C.ar  308  TRP308      0.0001
     71  CH2        8.4300   -5.3860   -5.6660 C.ar  308  TRP308      0.0015
     72  N          0.4000   -6.4100   -2.8760 N.3   319  LEU319     -0.1245
     73  CA         1.2540   -5.7760   -3.9030 C.3   319  LEU319      0.1561
     74  C          1.6140   -6.6920   -5.0530 C.2   319  LEU319      0.2260
     75  O          1.6970   -7.9110   -4.9010 O.2   319  LEU319     -0.2867
     76  CB         2.5860   -5.3480   -3.2840 C.3   319  LEU319      0.0270
     77  CG         2.5740   -4.2610   -2.2110 C.3   319  LEU319      0.0019
     78  CD1        4.0330   -3.9490   -1.8380 C.3   319  LEU319      0.0001
     79  CD2        1.8090   -3.0280   -2.6760 C.3   319  LEU319      0.0001
@<TRIPOS>BOND
     1    58    59    1
     2    60    59    1
     3    60    61    2
     4    59    62    1
     5    62    63    1
     6    68    70   ar
     7    68    65   ar
     8    70    71   ar
     9    65    63   ar
    10    65    67   ar
    11    63    64   ar
    12    71    69   ar
    13    67    69   ar
    14    67    66   ar
    15    64    66   ar
    16    74    75    2
    17    74    73    1
    18    23    21   ar
    19    73    76    1
    20    73    72    1
    21    22    21   ar
    22    21    20    1
    23    76    77    1
    24    79    77    1
    25    77    78    1
    26    20    19    1
    27    19    16    1
    28    18    17    2
    29    16    17    1
    30    16    15    1
    31    17    24   am
    32    24    25    1
    33    25    26    1
    34    57    55   ar
    35    57    56   ar
    36    40    39    1
    37    27    26    2
    38    55    53   ar
    39    56    54   ar
    40    10     9    2
    41    39    38    1
    42    39    41    1
    43    53    52   ar
    44    11    12    1
    45    11     8    1
    46    12    14   am
    47    12    13    2
    48     9     8    1
    49    54    52   ar
    50    38    35    1
    51    31    30    2
    52     8     7    1
    53    52    51    1
    54    35    34    1
    55    35    36    1
    56    28    29    1
    57    30    34   am
    58    30    29    1
    59    51    48    1
    60    45    44    2
    61    29    32    1
    62    42    36   am
    63    42    43    1
    64    36    37    2
    65    44    43    1
    66    44    47   am
    67    48    47    1
    68    48    49    1
    69     4     3    2
    70     6     5    1
    71    32    33    1
    72    43    46    1
    73     3     2    1
    74    49    50    2
    75     5     2    1
    76     2     1    1
