@<TRIPOS>MOLECULE
tmp/1zd2A00.pdb
 173 171 0 0 0
SMALL
GASTEIGER

@<TRIPOS>ATOM
      1  N        -23.7350   -9.9420   64.8070 N.3   266  PHE266     -0.1228
      2  CA       -23.4370  -11.3580   64.9990 C.3   266  PHE266      0.1721
      3  C        -22.8550  -11.6530   66.3660 C.2   266  PHE266      0.2437
      4  O        -21.9220  -10.9780   66.7990 O.2   266  PHE266     -0.2733
      5  CB       -22.4360  -11.8210   63.9420 C.3   266  PHE266      0.0547
      6  CG       -21.8230  -13.1560   64.2330 C.ar  266  PHE266     -0.0202
      7  CD1      -20.8910  -13.3120   65.2640 C.ar  266  PHE266     -0.0042
      8  CD2      -22.1680  -14.2600   63.4680 C.ar  266  PHE266     -0.0042
      9  CE1      -20.3210  -14.5490   65.5370 C.ar  266  PHE266     -0.0003
     10  CE2      -21.6080  -15.5050   63.7230 C.ar  266  PHE266     -0.0003
     11  CZ       -20.6760  -15.6530   64.7600 C.ar  266  PHE266     -0.0000
     12  N        -23.3930  -12.6700   67.0700 N.am  267  PRO267     -0.2729
     13  CA       -24.4990  -13.5230   66.6300 C.3   267  PRO267      0.1401
     14  C        -25.7220  -13.1670   67.4660 C.2   267  PRO267      0.2269
     15  O        -25.9350  -13.7160   68.5380 O.2   267  PRO267     -0.2865
     16  CB       -23.9770  -14.9150   66.9280 C.3   267  PRO267      0.0296
     17  CG       -23.2990  -14.7120   68.2440 C.3   267  PRO267      0.0237
     18  CD       -22.6160  -13.3480   68.1230 C.3   267  PRO267      0.0939
     19  N        -22.5510   -3.7240   65.3030 N.3   334  ASP334     -0.1225
     20  CA       -21.6900   -4.8050   64.8440 C.3   334  ASP334      0.1805
     21  C        -21.8650   -4.9160   63.3350 C.2   334  ASP334      0.2597
     22  O        -21.7420   -3.9320   62.6080 O.2   334  ASP334     -0.2718
     23  CB       -22.1080   -6.1140   65.5270 C.3   334  ASP334      0.1424
     24  CG       -21.0900   -7.2090   65.3620 C.2   334  ASP334      0.3668
     25  OD1      -20.0000   -7.0650   65.9340 O.co2 334  ASP334     -0.2456
     26  OD2      -21.3730   -8.2070   64.6650 O.co2 334  ASP334     -0.2456
     27  N        -22.1640   -6.1150   62.8610 N.am  335  TRP335     -0.1976
     28  CA       -22.3670   -6.2980   61.4360 C.3   335  TRP335      0.1640
     29  C        -23.4850   -5.3930   60.9410 C.2   335  TRP335      0.2290
     30  O        -23.3960   -4.8310   59.8550 O.2   335  TRP335     -0.2864
     31  CB       -22.6800   -7.7640   61.1260 C.3   335  TRP335      0.0576
     32  CG       -21.4810   -8.5020   60.6160 C.ar  335  TRP335      0.0006
     33  CD1      -20.8340   -9.5430   61.2160 C.ar  335  TRP335      0.0946
     34  CD2      -20.7670   -8.2240   59.4070 C.ar  335  TRP335      0.0152
     35  NE1      -19.7570   -9.9320   60.4510 N.ar  335  TRP335     -0.2442
     36  CE2      -19.6930   -9.1380   59.3350 C.ar  335  TRP335      0.0810
     37  CE3      -20.9290   -7.2880   58.3790 C.ar  335  TRP335      0.0012
     38  CZ2      -18.7830   -9.1410   58.2710 C.ar  335  TRP335      0.0191
     39  CZ3      -20.0260   -7.2920   57.3220 C.ar  335  TRP335      0.0001
     40  CH2      -18.9670   -8.2130   57.2790 C.ar  335  TRP335      0.0015
     41  N        -22.2690   -2.1650   59.9720 N.3   338  MET338     -0.1245
     42  CA       -21.5570   -2.2170   58.7000 C.3   338  MET338      0.1570
     43  C        -22.5990   -2.1310   57.6010 C.2   338  MET338      0.2261
     44  O        -22.4140   -1.4480   56.6000 O.2   338  MET338     -0.2867
     45  CB       -20.7880   -3.5430   58.5990 C.3   338  MET338      0.0387
     46  CG       -19.7640   -3.6450   57.4690 C.3   338  MET338      0.0595
     47  SD       -18.5050   -2.3570   57.5200 S.3   338  MET338     -0.1393
     48  CE       -17.4700   -2.8910   58.9070 C.3   338  MET338      0.0692
     49  N        -19.5050   -0.1790   65.4130 N.3   359  THR359     -0.1218
     50  CA       -18.9730   -0.3040   64.0600 C.3   359  THR359      0.1862
     51  C        -18.7280    1.0250   63.3670 C.2   359  THR359      0.2287
     52  O        -19.6600    1.7760   63.0950 O.2   359  THR359     -0.2866
     53  CB       -19.9130   -1.1140   63.1770 C.3   359  THR359      0.1770
     54  OG1      -20.4240   -2.2230   63.9210 O.3   359  THR359     -0.2211
     55  CG2      -19.1670   -1.6340   61.9560 C.3   359  THR359      0.0375
     56  N         -8.7080   -9.1400   65.2370 N.3   380  PHE380     -0.1241
     57  CA        -9.5470   -9.6540   64.1530 C.3   380  PHE380      0.1605
     58  C         -9.2610  -11.1460   63.7880 C.2   380  PHE380      0.2264
     59  O         -9.9900  -11.7070   62.9400 O.2   380  PHE380     -0.2867
     60  CB        -9.4310   -8.7480   62.8860 C.3   380  PHE380      0.0534
     61  CG       -10.1370   -7.4170   63.0010 C.ar  380  PHE380     -0.0203
     62  CD1      -11.3440   -7.2890   63.6940 C.ar  380  PHE380     -0.0042
     63  CD2       -9.6050   -6.3010   62.3720 C.ar  380  PHE380     -0.0042
     64  CE1      -12.0040   -6.0600   63.7510 C.ar  380  PHE380     -0.0003
     65  CE2      -10.2470   -5.0810   62.4180 C.ar  380  PHE380     -0.0003
     66  CZ       -11.4460   -4.9510   63.1070 C.ar  380  PHE380     -0.0000
     67  N         -9.9980  -13.9000   65.1990 N.3   382  TYR382     -0.1227
     68  CA       -11.2770  -14.5870   65.2470 C.3   382  TYR382      0.1736
     69  C        -11.9630  -14.5810   63.8660 C.2   382  TYR382      0.2595
     70  O        -12.7040  -15.4830   63.5280 O.2   382  TYR382     -0.2718
     71  CB       -12.1230  -13.9960   66.4030 C.3   382  TYR382      0.0548
     72  CG       -13.0890  -12.9120   65.8650 C.ar  382  TYR382     -0.0200
     73  CD1      -14.4150  -13.2120   65.4490 C.ar  382  TYR382     -0.0009
     74  CD2      -12.6710  -11.5820   65.7270 C.ar  382  TYR382     -0.0009
     75  CE1      -15.2920  -12.1740   64.9080 C.ar  382  TYR382      0.0417
     76  CE2      -13.5340  -10.5660   65.1920 C.ar  382  TYR382      0.0417
     77  CZ       -14.8310  -10.8750   64.7880 C.ar  382  TYR382      0.1957
     78  OH       -15.6820   -9.9320   64.2380 O.3   382  TYR382     -0.2866
     79  N        -11.7900  -13.4840   63.0800 N.am  383  GLN383     -0.1979
     80  CA       -12.5090  -13.4870   61.7590 C.3   383  GLN383      0.1601
     81  C        -11.9750  -14.5210   60.7000 C.2   383  GLN383      0.2287
     82  O        -12.6760  -15.0520   59.7790 O.2   383  GLN383     -0.2864
     83  CB       -12.4930  -12.0960   61.0350 C.3   383  GLN383      0.0394
     84  CG       -12.8980  -10.9590   61.9520 C.3   383  GLN383      0.0908
     85  CD       -13.2520   -9.6030   61.3260 C.2   383  GLN383      0.2608
     86  OE1      -13.7000   -8.7330   62.0590 O.2   383  GLN383     -0.2717
     87  NE2      -13.0580   -9.4170   60.0180 N.am  383  GLN383     -0.0878
     88  N        -13.2810  -17.8280   61.2160 N.3   386  PHE386     -0.1241
     89  CA       -14.6780  -17.9160   60.7970 C.3   386  PHE386      0.1605
     90  C        -14.8090  -18.2500   59.3070 C.2   386  PHE386      0.2264
     91  O        -15.9110  -18.4690   58.8010 O.2   386  PHE386     -0.2867
     92  CB       -15.4180  -16.5990   61.0680 C.3   386  PHE386      0.0534
     93  CG       -15.9260  -16.4560   62.4700 C.ar  386  PHE386     -0.0203
     94  CD1      -15.7710  -17.4800   63.3950 C.ar  386  PHE386     -0.0042
     95  CD2      -16.5500  -15.2810   62.8750 C.ar  386  PHE386     -0.0042
     96  CE1      -16.2270  -17.3320   64.7120 C.ar  386  PHE386     -0.0003
     97  CE2      -17.0090  -15.1240   64.1870 C.ar  386  PHE386     -0.0003
     98  CZ       -16.8460  -16.1520   65.1050 C.ar  386  PHE386     -0.0000
     99  N        -20.1940  -15.4960   75.2200 N.3   407  LEU407     -0.1245
    100  CA       -20.1190  -14.2880   74.4120 C.3   407  LEU407      0.1561
    101  C        -20.6540  -13.0510   75.1180 C.2   407  LEU407      0.2260
    102  O        -19.8980  -12.1390   75.4380 O.2   407  LEU407     -0.2867
    103  CB       -20.8980  -14.4710   73.1100 C.3   407  LEU407      0.0270
    104  CG       -20.3850  -15.4270   72.0370 C.3   407  LEU407      0.0019
    105  CD1      -21.3900  -15.4580   70.9150 C.3   407  LEU407      0.0001
    106  CD2      -19.0370  -14.9760   71.5130 C.3   407  LEU407      0.0001
    107  N         -9.1910  -13.7500   72.7580 N.3   418  MET418     -0.1245
    108  CA        -9.5420  -13.3950   71.3870 C.3   418  MET418      0.1570
    109  C         -8.3180  -13.2910   70.4860 C.2   418  MET418      0.2261
    110  O         -8.4340  -13.3380   69.2550 O.2   418  MET418     -0.2867
    111  CB       -10.3180  -12.0750   71.3630 C.3   418  MET418      0.0387
    112  CG       -11.2760  -11.9750   70.1840 C.3   418  MET418      0.0595
    113  SD       -12.6860  -13.1120   70.4060 S.3   418  MET418     -0.1393
    114  CE       -13.9380  -11.9600   71.1980 C.3   418  MET418      0.0692
    115  N        -12.6080  -20.9440   69.6150 N.3   427  LEU427     -0.1245
    116  CA       -12.9620  -19.7070   70.3030 C.3   427  LEU427      0.1561
    117  C        -13.1640  -19.9290   71.8020 C.2   427  LEU427      0.2260
    118  O        -12.9930  -19.0060   72.5990 O.2   427  LEU427     -0.2867
    119  CB       -14.2420  -19.1110   69.6850 C.3   427  LEU427      0.0270
    120  CG       -14.6790  -17.7050   70.1240 C.3   427  LEU427      0.0019
    121  CD1      -13.7260  -16.6450   69.5580 C.3   427  LEU427      0.0001
    122  CD2      -16.0980  -17.4600   69.6430 C.3   427  LEU427      0.0001
    123  N        -19.3630  -13.1430   57.5700 N.3   465  TYR465     -0.1241
    124  CA       -17.9160  -12.9740   57.6240 C.3   465  TYR465      0.1605
    125  C        -17.2380  -13.6310   56.4230 C.2   465  TYR465      0.2264
    126  O        -16.0360  -13.4780   56.2070 O.2   465  TYR465     -0.2867
    127  CB       -17.3770  -13.6100   58.9000 C.3   465  TYR465      0.0534
    128  CG       -17.6710  -12.8460   60.1720 C.ar  465  TYR465     -0.0201
    129  CD1      -16.9230  -11.7230   60.5180 C.ar  465  TYR465     -0.0009
    130  CD2      -18.6710  -13.2680   61.0520 C.ar  465  TYR465     -0.0009
    131  CE1      -17.1530  -11.0390   61.7060 C.ar  465  TYR465      0.0417
    132  CE2      -18.9140  -12.5900   62.2500 C.ar  465  TYR465      0.0417
    133  CZ       -18.1500  -11.4760   62.5710 C.ar  465  TYR465      0.1957
    134  OH       -18.3720  -10.7820   63.7430 O.3   465  TYR465     -0.2866
    135  N        -12.4860   -4.9410   70.4000 N.3   497  VAL497     -0.1231
    136  CA       -12.3480   -5.4370   69.0370 C.3   497  VAL497      0.1692
    137  C        -12.7680   -4.3230   68.0580 C.2   497  VAL497      0.2591
    138  O        -12.1820   -4.1660   66.9830 O.2   497  VAL497     -0.2718
    139  CB       -13.1870   -6.7170   68.8310 C.3   497  VAL497      0.0266
    140  CG1      -14.5750   -6.5370   69.4250 C.3   497  VAL497      0.0020
    141  CG2      -13.2710   -7.0360   67.3580 C.3   497  VAL497      0.0020
    142  N        -13.7830   -3.5540   68.4460 N.am  498  LEU498     -0.1980
    143  CA       -14.2570   -2.4250   67.6550 C.3   498  LEU498      0.1596
    144  C        -13.9240   -1.1850   68.4960 C.2   498  LEU498      0.2287
    145  O        -14.8080   -0.4740   68.9810 O.2   498  LEU498     -0.2864
    146  CB       -15.7680   -2.5310   67.4010 C.3   498  LEU498      0.0297
    147  CG       -16.2690   -3.6700   66.4980 C.3   498  LEU498      0.0022
    148  CD1      -17.7710   -3.5430   66.2680 C.3   498  LEU498      0.0001
    149  CD2      -15.5540   -3.6200   65.1620 C.3   498  LEU498      0.0001
    150  N        -18.5930   -4.6630   74.0590 N.3   523  HIS523     -0.1226
    151  CA       -19.0660   -4.7400   72.6860 C.3   523  HIS523      0.1752
    152  C        -20.5940   -4.7930   72.6040 C.2   523  HIS523      0.2596
    153  O        -21.2150   -4.1130   71.7790 O.2   523  HIS523     -0.2718
    154  CB       -18.4760   -5.9840   72.0390 C.3   523  HIS523      0.0759
    155  CG       -19.1010   -6.3440   70.7270 C.ar  523  HIS523      0.0818
    156  ND1      -18.8000   -5.6930   69.5550 N.ar  523  HIS523     -0.2268
    157  CD2      -19.9930   -7.3150   70.4090 C.ar  523  HIS523      0.1154
    158  CE1      -19.4750   -6.2500   68.5610 C.ar  523  HIS523      0.1986
    159  NE2      -20.2040   -7.2340   69.0540 N.ar  523  HIS523     -0.2212
    160  N        -21.1900   -5.6070   73.4690 N.am  524  TRP524     -0.1976
    161  CA       -22.6380   -5.7850   73.5010 C.3   524  TRP524      0.1640
    162  C        -23.3150   -4.5580   74.0990 C.2   524  TRP524      0.2290
    163  O        -23.8840   -4.5940   75.1920 O.2   524  TRP524     -0.2864
    164  CB       -22.9680   -7.0480   74.2910 C.3   524  TRP524      0.0576
    165  CG       -22.0570   -8.1790   73.9240 C.ar  524  TRP524      0.0006
    166  CD1      -20.9780   -8.6360   74.6360 C.ar  524  TRP524      0.0946
    167  CD2      -22.1120   -8.9680   72.7300 C.ar  524  TRP524      0.0152
    168  NE1      -20.3620   -9.6590   73.9580 N.ar  524  TRP524     -0.2442
    169  CE2      -21.0350   -9.8860   72.7860 C.ar  524  TRP524      0.0810
    170  CE3      -22.9690   -8.9860   71.6170 C.ar  524  TRP524      0.0012
    171  CZ2      -20.7920  -10.8180   71.7670 C.ar  524  TRP524      0.0191
    172  CZ3      -22.7280   -9.9090   70.6070 C.ar  524  TRP524      0.0001
    173  CH2      -21.6440  -10.8140   70.6900 C.ar  524  TRP524      0.0015
@<TRIPOS>BOND
     1   126   125    2
     2   125   124    1
     3    44    43    2
     4    40    39   ar
     5    40    38   ar
     6    39    37   ar
     7    46    47    1
     8    46    45    1
     9    47    48    1
    10   123   124    1
    11    43    42    1
    12   124   127    1
    13    38    36   ar
    14    37    34   ar
    15    45    42    1
    16    42    41    1
    17    91    90    2
    18   127   128    1
    19    90    89    1
    20    36    34   ar
    21    36    35   ar
    22    34    32   ar
    23    82    81    2
    24    30    29    2
    25    87    85   am
    26   128   129   ar
    27   128   130   ar
    28    35    33   ar
    29   129   131   ar
    30    32    31    1
    31    32    33   ar
    32    81    80    1
    33    89    92    1
    34    89    88    1
    35    29    28    1
    36    83    80    1
    37    83    84    1
    38   130   132   ar
    39    92    93    1
    40    31    28    1
    41    85    84    1
    42    85    86    2
    43    28    27    1
    44   131   133   ar
    45    80    79    1
    46    55    53    1
    47   132   133   ar
    48    63    65   ar
    49    63    61   ar
    50    65    66   ar
    51    93    95   ar
    52    93    94   ar
    53   133   134    1
    54    22    21    2
    55    27    21   am
    56    95    97   ar
    57    60    61    1
    58    60    57    1
    59    59    58    2
    60    61    62   ar
    61    79    69   am
    62    52    51    2
    63    66    64   ar
    64    53    54    1
    65    53    50    1
    66    21    20    1
    67    51    50    1
    68    94    96   ar
    69     8    10   ar
    70     8     6   ar
    71    70    69    2
    72    62    64   ar
    73    10    11   ar
    74    58    57    1
    75    69    68    1
    76     5     6    1
    77     5     2    1
    78    50    49    1
    79    57    56    1
    80    97    98   ar
    81     6     7   ar
    82    78    77    1
    83    26    24   ar
    84    96    98   ar
    85    11     9   ar
    86    77    75   ar
    87    77    76   ar
    88     1     2    1
    89    20    19    1
    90    20    23    1
    91    75    73   ar
    92     2     3    1
    93   149   147    1
    94    76    74   ar
    95    67    68    1
    96    68    71    1
    97     7     9   ar
    98    24    23    1
    99    24    25   ar
   100    73    72   ar
   101    74    72   ar
   102    72    71    1
   103   148   147    1
   104     3     4    2
   105     3    12   am
   106   147   146    1
   107    13    16    1
   108    13    12    1
   109    13    14    1
   110    16    17    1
   111   138   137    2
   112    12    18    1
   113   141   139    1
   114   146   143    1
   115    14    15    2
   116   143   142    1
   117   143   144    1
   118   137   142   am
   119   137   136    1
   120    18    17    1
   121   144   145    2
   122   158   159   ar
   123   158   156   ar
   124   139   136    1
   125   139   140    1
   126   136   135    1
   127   159   157   ar
   128   110   109    2
   129   156   155   ar
   130   121   120    1
   131   115   116    1
   132   122   120    1
   133   119   120    1
   134   119   116    1
   135   112   113    1
   136   112   111    1
   137   116   117    1
   138   113   114    1
   139   157   155   ar
   140   109   108    1
   141   172   173   ar
   142   172   170   ar
   143   173   171   ar
   144   155   154    1
   145   105   104    1
   146   111   108    1
   147   108   107    1
   148   106   104    1
   149   170   167   ar
   150   171   169   ar
   151   153   152    2
   152   117   118    2
   153   104   103    1
   154   154   151    1
   155   152   151    1
   156   152   160   am
   157   151   150    1
   158   167   169   ar
   159   167   165   ar
   160   169   168   ar
   161   103   100    1
   162   160   161    1
   163   161   162    1
   164   161   164    1
   165   165   164    1
   166   165   166   ar
   167   168   166   ar
   168   162   163    2
   169   100   101    1
   170   100    99    1
   171   101   102    2
