@<TRIPOS>MOLECULE
tmp/1zd3A01.pdb
 180 179 0 0 0
SMALL
GASTEIGER

@<TRIPOS>ATOM
      1  N        -23.7950   -9.9570   65.1810 N.3   266  PHE266     -0.1228
      2  CA       -23.4830  -11.3810   65.2940 C.3   266  PHE266      0.1721
      3  C        -22.9980  -11.7430   66.6910 C.2   266  PHE266      0.2437
      4  O        -22.1220  -11.0880   67.2410 O.2   266  PHE266     -0.2733
      5  CB       -22.4010  -11.7490   64.2790 C.3   266  PHE266      0.0547
      6  CG       -21.8380  -13.1270   64.4630 C.ar  266  PHE266     -0.0202
      7  CD1      -20.9530  -13.4030   65.5140 C.ar  266  PHE266     -0.0042
      8  CD2      -22.2460  -14.1730   63.6410 C.ar  266  PHE266     -0.0042
      9  CE1      -20.4880  -14.7040   65.7400 C.ar  266  PHE266     -0.0003
     10  CE2      -21.7900  -15.4690   63.8540 C.ar  266  PHE266     -0.0003
     11  CZ       -20.9150  -15.7420   64.9110 C.ar  266  PHE266     -0.0000
     12  N        -23.5540  -12.8040   67.2850 N.am  267  PRO267     -0.2729
     13  CA       -24.6190  -13.6600   66.7480 C.3   267  PRO267      0.1401
     14  C        -25.8660  -13.3010   67.5640 C.2   267  PRO267      0.2269
     15  O        -26.1230  -13.9110   68.5960 O.2   267  PRO267     -0.2865
     16  CB       -24.0850  -15.0600   67.0460 C.3   267  PRO267      0.0296
     17  CG       -23.4200  -14.8700   68.4090 C.3   267  PRO267      0.0237
     18  CD       -22.8820  -13.4470   68.4340 C.3   267  PRO267      0.0939
     19  N        -22.8350   -3.6660   65.5660 N.3   334  ASP334     -0.1225
     20  CA       -21.9360   -4.7020   65.0750 C.3   334  ASP334      0.1805
     21  C        -22.1070   -4.9160   63.5540 C.2   334  ASP334      0.2597
     22  O        -22.0360   -3.9560   62.7920 O.2   334  ASP334     -0.2718
     23  CB       -22.1860   -5.9930   65.8500 C.3   334  ASP334      0.1424
     24  CG       -21.1750   -7.0540   65.5270 C.2   334  ASP334      0.3668
     25  OD1      -21.5450   -8.0210   64.8220 O.co2 334  ASP334     -0.2456
     26  OD2      -20.0140   -6.9120   65.9640 O.co2 334  ASP334     -0.2456
     27  N        -22.3360   -6.1470   63.1030 N.am  335  TRP335     -0.1976
     28  CA       -22.5050   -6.3670   61.6720 C.3   335  TRP335      0.1640
     29  C        -23.6590   -5.5340   61.1100 C.2   335  TRP335      0.2290
     30  O        -23.5940   -5.0600   59.9710 O.2   335  TRP335     -0.2864
     31  CB       -22.7080   -7.8530   61.3460 C.3   335  TRP335      0.0576
     32  CG       -21.4260   -8.5530   60.9190 C.ar  335  TRP335      0.0006
     33  CD1      -20.7310   -9.5040   61.6190 C.ar  335  TRP335      0.0946
     34  CD2      -20.7060   -8.3540   59.6970 C.ar  335  TRP335      0.0152
     35  NE1      -19.6280   -9.9110   60.9060 N.ar  335  TRP335     -0.2442
     36  CE2      -19.5880   -9.2210   59.7220 C.ar  335  TRP335      0.0810
     37  CE3      -20.8950   -7.5290   58.5840 C.ar  335  TRP335      0.0012
     38  CZ2      -18.6620   -9.2860   58.6680 C.ar  335  TRP335      0.0191
     39  CZ3      -19.9720   -7.5950   57.5360 C.ar  335  TRP335      0.0001
     40  CH2      -18.8710   -8.4690   57.5900 C.ar  335  TRP335      0.0015
     41  N        -22.3740   -2.1760   60.1840 N.3   338  MET338     -0.1245
     42  CA       -21.6410   -2.1390   58.9300 C.3   338  MET338      0.1570
     43  C        -22.6440   -1.9870   57.7930 C.2   338  MET338      0.2261
     44  O        -22.4440   -1.2080   56.8580 O.2   338  MET338     -0.2867
     45  CB       -20.8410   -3.4340   58.7440 C.3   338  MET338      0.0387
     46  CG       -19.9080   -3.4420   57.5280 C.3   338  MET338      0.0595
     47  SD       -18.5580   -2.2330   57.7240 S.3   338  MET338     -0.1393
     48  CE       -17.1670   -3.3200   58.0200 C.3   338  MET338      0.0692
     49  N        -19.7330   -0.1480   65.6390 N.3   359  THR359     -0.1204
     50  CA       -19.1850   -0.3580   64.3180 C.3   359  THR359      0.1979
     51  C        -18.9010    0.9240   63.5850 C.2   359  THR359      0.2459
     52  O        -19.8060    1.6490   63.1760 O.2   359  THR359     -0.2732
     53  CB       -20.1050   -1.1830   63.4610 C.3   359  THR359      0.1783
     54  OG1      -20.4570   -2.3770   64.1590 O.3   359  THR359     -0.2211
     55  CG2      -19.4170   -1.5330   62.1650 C.3   359  THR359      0.0376
     56  N        -17.6190    1.1940   63.3600 N.am  360  PRO360     -0.2728
     57  CA       -17.1970    2.4030   62.6680 C.3   360  PRO360      0.1401
     58  C        -17.2880    2.2020   61.1630 C.2   360  PRO360      0.2269
     59  O        -17.1680    1.0800   60.6780 O.2   360  PRO360     -0.2865
     60  CB       -15.7560    2.5300   63.1160 C.3   360  PRO360      0.0296
     61  CG       -15.2950    1.0880   62.9800 C.3   360  PRO360      0.0237
     62  CD       -16.4690    0.2880   63.5690 C.3   360  PRO360      0.0939
     63  N         -8.6910   -9.2690   65.3020 N.3   380  PHE380     -0.1241
     64  CA        -9.5670   -9.7570   64.2310 C.3   380  PHE380      0.1605
     65  C         -9.1980  -11.1620   63.7590 C.2   380  PHE380      0.2264
     66  O         -9.6770  -11.6250   62.7240 O.2   380  PHE380     -0.2867
     67  CB        -9.5460   -8.8140   63.0150 C.3   380  PHE380      0.0534
     68  CG       -10.4270   -7.5980   63.1540 C.ar  380  PHE380     -0.0203
     69  CD1      -11.4670   -7.5730   64.0770 C.ar  380  PHE380     -0.0042
     70  CD2      -10.2230   -6.4770   62.3490 C.ar  380  PHE380     -0.0042
     71  CE1      -12.2910   -6.4550   64.2020 C.ar  380  PHE380     -0.0003
     72  CE2      -11.0440   -5.3530   62.4670 C.ar  380  PHE380     -0.0003
     73  CZ       -12.0800   -5.3430   63.3970 C.ar  380  PHE380     -0.0000
     74  N        -10.0300  -13.9570   65.0130 N.3   382  TYR382     -0.1227
     75  CA       -11.2090  -14.7920   65.0500 C.3   382  TYR382      0.1736
     76  C        -11.9660  -14.8020   63.7020 C.2   382  TYR382      0.2595
     77  O        -12.6150  -15.7870   63.3620 O.2   382  TYR382     -0.2718
     78  CB       -12.1210  -14.3290   66.1930 C.3   382  TYR382      0.0548
     79  CG       -12.7940  -13.0050   65.9420 C.ar  382  TYR382     -0.0200
     80  CD1      -14.0510  -12.9510   65.3590 C.ar  382  TYR382     -0.0009
     81  CD2      -12.1560  -11.8040   66.2440 C.ar  382  TYR382     -0.0009
     82  CE1      -14.6650  -11.7420   65.0750 C.ar  382  TYR382      0.0417
     83  CE2      -12.7630  -10.5810   65.9620 C.ar  382  TYR382      0.0417
     84  CZ       -14.0250  -10.5630   65.3720 C.ar  382  TYR382      0.1957
     85  OH       -14.6400   -9.3710   65.0590 O.3   382  TYR382     -0.2866
     86  N        -11.8730  -13.7220   62.9300 N.am  383  GLN383     -0.1979
     87  CA       -12.5580  -13.6850   61.6480 C.3   383  GLN383      0.1601
     88  C        -11.9520  -14.7020   60.6750 C.2   383  GLN383      0.2287
     89  O        -12.6360  -15.2080   59.7830 O.2   383  GLN383     -0.2864
     90  CB       -12.5340  -12.2760   61.0500 C.3   383  GLN383      0.0394
     91  CG       -13.0790  -11.2130   61.9990 C.3   383  GLN383      0.0908
     92  CD       -13.4460   -9.9100   61.2980 C.2   383  GLN383      0.2608
     93  OE1      -13.7070   -8.8930   61.9470 O.2   383  GLN383     -0.2717
     94  NE2      -13.4780   -9.9390   59.9730 N.am  383  GLN383     -0.0878
     95  N        -13.4720  -18.0590   61.2700 N.3   386  PHE386     -0.1241
     96  CA       -14.8230  -18.2290   60.7580 C.3   386  PHE386      0.1605
     97  C        -14.8820  -18.5320   59.2660 C.2   386  PHE386      0.2264
     98  O        -15.9340  -18.9120   58.7470 O.2   386  PHE386     -0.2867
     99  CB       -15.6790  -16.9870   61.0430 C.3   386  PHE386      0.0534
    100  CG       -15.9240  -16.7290   62.5040 C.ar  386  PHE386     -0.0203
    101  CD1      -15.6720  -17.7120   63.4550 C.ar  386  PHE386     -0.0042
    102  CD2      -16.4190  -15.5000   62.9280 C.ar  386  PHE386     -0.0042
    103  CE1      -15.9130  -17.4770   64.8010 C.ar  386  PHE386     -0.0003
    104  CE2      -16.6660  -15.2550   64.2790 C.ar  386  PHE386     -0.0003
    105  CZ       -16.4080  -16.2440   65.2170 C.ar  386  PHE386     -0.0000
    106  N        -20.3200  -15.5170   75.3580 N.3   407  LEU407     -0.1245
    107  CA       -20.2540  -14.3060   74.5500 C.3   407  LEU407      0.1561
    108  C        -20.8380  -13.0780   75.2240 C.2   407  LEU407      0.2260
    109  O        -20.1640  -12.0580   75.3570 O.2   407  LEU407     -0.2867
    110  CB       -20.9870  -14.5150   73.2280 C.3   407  LEU407      0.0270
    111  CG       -20.4180  -15.5480   72.2630 C.3   407  LEU407      0.0019
    112  CD1      -21.4480  -15.8220   71.1950 C.3   407  LEU407      0.0001
    113  CD2      -19.1110  -15.0580   71.6620 C.3   407  LEU407      0.0001
    114  N        -13.1690  -14.9980   77.0560 N.3   416  LEU416     -0.1245
    115  CA       -12.6560  -15.3430   75.7300 C.3   416  LEU416      0.1561
    116  C        -11.5660  -14.3630   75.2930 C.2   416  LEU416      0.2260
    117  O        -11.5200  -13.2250   75.7560 O.2   416  LEU416     -0.2867
    118  CB       -13.7950  -15.3130   74.7030 C.3   416  LEU416      0.0270
    119  CG       -15.0490  -16.1420   74.9900 C.3   416  LEU416      0.0019
    120  CD1      -16.0910  -15.8960   73.9090 C.3   416  LEU416      0.0001
    121  CD2      -14.6840  -17.6140   75.0560 C.3   416  LEU416      0.0001
    122  N        -10.4000  -13.0920   71.7740 N.3   418  MET418     -0.1245
    123  CA       -10.5190  -12.9850   70.3210 C.3   418  MET418      0.1570
    124  C         -9.1870  -12.9570   69.5770 C.2   418  MET418      0.2261
    125  O         -9.1380  -13.2350   68.3750 O.2   418  MET418     -0.2867
    126  CB       -11.3280  -11.7350   69.9570 C.3   418  MET418      0.0387
    127  CG       -12.7500  -11.7040   70.5220 C.3   418  MET418      0.0595
    128  SD       -13.8220  -13.0500   69.9390 S.3   418  MET418     -0.1393
    129  CE       -13.5770  -14.2470   71.2350 C.3   418  MET418      0.0692
    130  N        -19.3730  -13.3140   57.4860 N.3   465  TYR465     -0.1241
    131  CA       -17.9320  -13.1200   57.5420 C.3   465  TYR465      0.1605
    132  C        -17.2490  -13.7110   56.3350 C.2   465  TYR465      0.2264
    133  O        -16.0490  -13.5200   56.1530 O.2   465  TYR465     -0.2867
    134  CB       -17.3430  -13.8490   58.7440 C.3   465  TYR465      0.0534
    135  CG       -17.6990  -13.2760   60.0880 C.ar  465  TYR465     -0.0201
    136  CD1      -16.8690  -12.3470   60.7080 C.ar  465  TYR465     -0.0009
    137  CD2      -18.8370  -13.6990   60.7640 C.ar  465  TYR465     -0.0009
    138  CE1      -17.1560  -11.8570   61.9680 C.ar  465  TYR465      0.0417
    139  CE2      -19.1360  -13.2140   62.0270 C.ar  465  TYR465      0.0417
    140  CZ       -18.2910  -12.2960   62.6230 C.ar  465  TYR465      0.1957
    141  OH       -18.5890  -11.8230   63.8730 O.3   465  TYR465     -0.2866
    142  N        -12.9730   -5.2100   70.6220 N.3   497  VAL497     -0.1231
    143  CA       -12.8690   -5.7160   69.2600 C.3   497  VAL497      0.1692
    144  C        -13.1780   -4.5290   68.3320 C.2   497  VAL497      0.2591
    145  O        -12.3930   -4.2160   67.4320 O.2   497  VAL497     -0.2718
    146  CB       -13.8110   -6.9410   69.0150 C.3   497  VAL497      0.0266
    147  CG1      -15.1690   -6.7220   69.6570 C.3   497  VAL497      0.0020
    148  CG2      -13.9600   -7.1860   67.5160 C.3   497  VAL497      0.0020
    149  N        -14.2940   -3.8450   68.5710 N.am  498  LEU498     -0.1980
    150  CA       -14.6380   -2.6630   67.7820 C.3   498  LEU498      0.1596
    151  C        -14.2840   -1.4640   68.6600 C.2   498  LEU498      0.2287
    152  O        -15.1530   -0.8240   69.2570 O.2   498  LEU498     -0.2864
    153  CB       -16.1280   -2.6560   67.4320 C.3   498  LEU498      0.0297
    154  CG       -16.5500   -3.7380   66.4430 C.3   498  LEU498      0.0022
    155  CD1      -18.0490   -3.7160   66.2750 C.3   498  LEU498      0.0001
    156  CD2      -15.8580   -3.5170   65.0960 C.3   498  LEU498      0.0001
    157  N        -18.8330   -4.6260   74.1970 N.3   523  HIS523     -0.1226
    158  CA       -19.2900   -4.8250   72.8270 C.3   523  HIS523      0.1752
    159  C        -20.8130   -4.9360   72.6820 C.2   523  HIS523      0.2596
    160  O        -21.3800   -4.4510   71.7140 O.2   523  HIS523     -0.2718
    161  CB       -18.6720   -6.0920   72.2460 C.3   523  HIS523      0.0759
    162  CG       -19.2270   -6.4550   70.9040 C.ar  523  HIS523      0.0818
    163  ND1      -18.9770   -5.7170   69.7690 N.ar  523  HIS523     -0.2268
    164  CD2      -20.0680   -7.4500   70.5270 C.ar  523  HIS523      0.1154
    165  CE1      -19.6370   -6.2390   68.7500 C.ar  523  HIS523      0.1986
    166  NE2      -20.3060   -7.2900   69.1860 N.ar  523  HIS523     -0.2212
    167  N        -21.4480   -5.5920   73.6470 N.am  524  TRP524     -0.1976
    168  CA       -22.8850   -5.8140   73.6350 C.3   524  TRP524      0.1640
    169  C        -23.6140   -4.5920   74.1790 C.2   524  TRP524      0.2290
    170  O        -24.3680   -4.6610   75.1490 O.2   524  TRP524     -0.2864
    171  CB       -23.1950   -7.0640   74.4530 C.3   524  TRP524      0.0576
    172  CG       -22.2350   -8.1810   74.1200 C.ar  524  TRP524      0.0006
    173  CD1      -21.1520   -8.5950   74.8580 C.ar  524  TRP524      0.0946
    174  CD2      -22.2150   -8.9520   72.9140 C.ar  524  TRP524      0.0152
    175  NE1      -20.4590   -9.5700   74.1800 N.ar  524  TRP524     -0.2442
    176  CE2      -21.0850   -9.8110   72.9840 C.ar  524  TRP524      0.0810
    177  CE3      -23.0420   -9.0020   71.7760 C.ar  524  TRP524      0.0012
    178  CZ2      -20.7590  -10.7060   71.9590 C.ar  524  TRP524      0.0191
    179  CZ3      -22.7180   -9.8930   70.7560 C.ar  524  TRP524      0.0001
    180  CH2      -21.5820  -10.7340   70.8560 C.ar  524  TRP524      0.0015
@<TRIPOS>BOND
     1   133   132    2
     2   132   131    1
     3    44    43    2
     4   130   131    1
     5    46    47    1
     6    46    45    1
     7    39    40   ar
     8    39    37   ar
     9   131   134    1
    10    40    38   ar
    11    47    48    1
    12    43    42    1
    13    37    34   ar
    14    38    36   ar
    15   134   135    1
    16    45    42    1
    17    98    97    2
    18    42    41    1
    19    97    96    1
    20    34    36   ar
    21    34    32   ar
    22    36    35   ar
    23    89    88    2
    24    30    29    2
    25    94    92   am
    26   135   136   ar
    27   135   137   ar
    28    88    87    1
    29    59    58    2
    30   136   138   ar
    31    96    99    1
    32    96    95    1
    33   137   139   ar
    34    35    33   ar
    35    32    31    1
    36    32    33   ar
    37    99   100    1
    38    90    87    1
    39    90    91    1
    40    29    28    1
    41    58    57    1
    42    92    93    2
    43    92    91    1
    44    31    28    1
    45    87    86    1
    46    28    27    1
    47   138   140   ar
    48   139   140   ar
    49    55    53    1
    50    70    72   ar
    51    70    68   ar
    52    72    73   ar
    53   100   102   ar
    54   100   101   ar
    55   140   141    1
    56    57    60    1
    57    57    56    1
    58    66    65    2
    59    22    21    2
    60   102   104   ar
    61    86    76   am
    62    61    60    1
    63    61    62    1
    64    67    68    1
    65    67    64    1
    66    27    21   am
    67    68    69   ar
    68    52    51    2
    69    56    62    1
    70    56    51   am
    71    77    76    2
    72    73    71   ar
    73   101   103   ar
    74    53    54    1
    75    53    50    1
    76    21    20    1
    77    51    50    1
    78     8    10   ar
    79     8     6   ar
    80    76    75    1
    81    65    64    1
    82    10    11   ar
    83    69    71   ar
    84    64    63    1
    85     5     6    1
    86     5     2    1
    87   104   105   ar
    88    50    49    1
    89     6     7   ar
    90   103   105   ar
    91    25    24   ar
    92    11     9   ar
    93    74    75    1
    94    75    78    1
    95    85    84    1
    96    82    80   ar
    97    82    84   ar
    98    20    19    1
    99    20    23    1
   100   156   154    1
   101     1     2    1
   102     2     3    1
   103    80    79   ar
   104    84    83   ar
   105     7     9   ar
   106    24    23    1
   107    24    26   ar
   108    79    78    1
   109    79    81   ar
   110    83    81   ar
   111   155   154    1
   112   154   153    1
   113     3     4    2
   114     3    12   am
   115    13    16    1
   116    13    12    1
   117    13    14    1
   118    16    17    1
   119    12    18    1
   120   145   144    2
   121   153   150    1
   122   148   146    1
   123    14    15    2
   124   150   149    1
   125   150   151    1
   126   144   149   am
   127   144   143    1
   128   125   124    2
   129    17    18    1
   130   151   152    2
   131   165   166   ar
   132   165   163   ar
   133   146   143    1
   134   146   147    1
   135   166   164   ar
   136   143   142    1
   137   124   123    1
   138   163   162   ar
   139   128   127    1
   140   128   129    1
   141   126   123    1
   142   126   127    1
   143   123   122    1
   144   164   162   ar
   145   179   180   ar
   146   179   177   ar
   147   180   178   ar
   148   162   161    1
   149   112   111    1
   150   113   111    1
   151   160   159    2
   152   177   174   ar
   153   178   176   ar
   154   161   158    1
   155   111   110    1
   156   159   158    1
   157   159   167   am
   158   158   157    1
   159   174   176   ar
   160   174   172   ar
   161   176   175   ar
   162   110   107    1
   163   168   167    1
   164   168   169    1
   165   168   171    1
   166   120   119    1
   167   172   171    1
   168   172   173   ar
   169   169   170    2
   170   175   173   ar
   171   107   108    1
   172   107   106    1
   173   118   119    1
   174   118   115    1
   175   119   121    1
   176   108   109    2
   177   116   115    1
   178   116   117    2
   179   115   114    1
