@<TRIPOS>MOLECULE
tmp/1zd4A00.pdb
 197 196 0 0 0
SMALL
GASTEIGER

@<TRIPOS>ATOM
      1  N         20.5200   15.7720  139.5780 N.3   266  PHE266     -0.1228
      2  CA        21.5710   14.7850  139.3480 C.3   266  PHE266      0.1721
      3  C         21.5460   14.2390  137.9280 C.2   266  PHE266      0.2437
      4  O         20.5040   13.8000  137.4420 O.2   266  PHE266     -0.2733
      5  CB        21.4190   13.6250  140.3400 C.3   266  PHE266      0.0547
      6  CG        22.3930   12.4900  140.1200 C.ar  266  PHE266     -0.0202
      7  CD1       22.3090   11.6820  138.9880 C.ar  266  PHE266     -0.0042
      8  CD2       23.3840   12.2200  141.0580 C.ar  266  PHE266     -0.0042
      9  CE1       23.1920   10.6260  138.7930 C.ar  266  PHE266     -0.0003
     10  CE2       24.2730   11.1640  140.8730 C.ar  266  PHE266     -0.0003
     11  CZ        24.1760   10.3650  139.7370 C.ar  266  PHE266     -0.0000
     12  N         22.6940   14.2700  137.2370 N.am  267  PRO267     -0.2729
     13  CA        23.9910   14.7840  137.6870 C.3   267  PRO267      0.1401
     14  C         24.3550   15.9700  136.7930 C.2   267  PRO267      0.2269
     15  O         24.9490   15.7900  135.7290 O.2   267  PRO267     -0.2865
     16  CB        24.9080   13.6000  137.4580 C.3   267  PRO267      0.0296
     17  CG        24.4020   13.0740  136.1370 C.3   267  PRO267      0.0237
     18  CD        22.8830   13.2720  136.1690 C.3   267  PRO267      0.0939
     19  N         14.5870   17.9090  139.1220 N.3   334  ASP334     -0.1225
     20  CA        15.0680   16.6110  139.5750 C.3   334  ASP334      0.1805
     21  C         15.2410   16.7070  141.0890 C.2   334  ASP334      0.2597
     22  O         14.3070   17.0870  141.7980 O.2   334  ASP334     -0.2718
     23  CB        16.4060   16.2900  138.9030 C.3   334  ASP334      0.1424
     24  CG        16.7970   14.8380  139.0530 C.2   334  ASP334      0.3668
     25  OD1       17.8910   14.5700  139.5920 O.co2 334  ASP334     -0.2456
     26  OD2       16.0070   13.9680  138.6280 O.co2 334  ASP334     -0.2456
     27  N         16.4270   16.3740  141.5900 N.am  335  TRP335     -0.1976
     28  CA        16.6660   16.4690  143.0250 C.3   335  TRP335      0.1640
     29  C         16.4360   17.9080  143.4700 C.2   335  TRP335      0.2290
     30  O         15.9240   18.1540  144.5610 O.2   335  TRP335     -0.2864
     31  CB        18.0940   16.0440  143.3760 C.3   335  TRP335      0.0576
     32  CG        18.2290   14.5810  143.6660 C.ar  335  TRP335      0.0006
     33  CD1       18.8550   13.6450  142.8950 C.ar  335  TRP335      0.0946
     34  CD2       17.7230   13.8840  144.8110 C.ar  335  TRP335      0.0152
     35  NE1       18.7720   12.4100  143.4880 N.ar  335  TRP335     -0.2442
     36  CE2       18.0820   12.5260  144.6650 C.ar  335  TRP335      0.0810
     37  CE3       16.9980   14.2750  145.9460 C.ar  335  TRP335      0.0012
     38  CZ2       17.7420   11.5530  145.6160 C.ar  335  TRP335      0.0191
     39  CZ3       16.6590   13.3070  146.8920 C.ar  335  TRP335      0.0001
     40  CH2       17.0330   11.9620  146.7180 C.ar  335  TRP335      0.0015
     41  N         13.0870   18.5700  144.3410 N.3   338  MET338     -0.1245
     42  CA        12.8280   17.9450  145.6310 C.3   338  MET338      0.1570
     43  C         13.2430   18.9140  146.7320 C.2   338  MET338      0.2261
     44  O         12.4990   19.1600  147.6820 O.2   338  MET338     -0.2867
     45  CB        13.6340   16.6550  145.7560 C.3   338  MET338      0.0387
     46  CG        13.4010   15.8950  147.0430 C.3   338  MET338      0.0595
     47  SD        11.7690   15.1430  147.1020 S.3   338  MET338     -0.1393
     48  CE        12.0680   13.6520  146.1940 C.3   338  MET338      0.0692
     49  N          9.9620   17.0200  138.9470 N.3   359  THR359     -0.1204
     50  CA         9.8330   16.4790  140.3000 C.3   359  THR359      0.1979
     51  C          8.5230   16.8400  140.9860 C.2   359  THR359      0.2459
     52  O          8.2360   18.0090  141.2270 O.2   359  THR359     -0.2732
     53  CB        10.9740   16.9580  141.2060 C.3   359  THR359      0.1783
     54  OG1       12.2270   16.6920  140.5720 O.3   359  THR359     -0.2211
     55  CG2       10.9310   16.2300  142.5440 C.3   359  THR359      0.0376
     56  N          7.7100   15.8290  141.3150 N.am  360  PRO360     -0.2728
     57  CA         6.4300   16.0660  141.9810 C.3   360  PRO360      0.1401
     58  C          6.5960   15.9910  143.4970 C.2   360  PRO360      0.2269
     59  O          7.4330   15.2370  143.9960 O.2   360  PRO360     -0.2865
     60  CB         5.5710   14.9300  141.4500 C.3   360  PRO360      0.0296
     61  CG         6.5490   13.7920  141.4520 C.3   360  PRO360      0.0237
     62  CD         7.8170   14.4240  140.8790 C.3   360  PRO360      0.0939
     63  N         12.4900    2.8900  139.2050 N.3   380  PHE380     -0.1241
     64  CA        13.3690    3.3960  140.2580 C.3   380  PHE380      0.1605
     65  C         14.4320    2.3610  140.6270 C.2   380  PHE380      0.2264
     66  O         15.2170    2.5680  141.5520 O.2   380  PHE380     -0.2867
     67  CB        12.5720    3.7710  141.5170 C.3   380  PHE380      0.0534
     68  CG        11.7800    5.0500  141.3900 C.ar  380  PHE380     -0.0203
     69  CD1       12.1680    6.0460  140.4980 C.ar  380  PHE380     -0.0042
     70  CD2       10.6600    5.2660  142.1860 C.ar  380  PHE380     -0.0042
     71  CE1       11.4540    7.2400  140.4040 C.ar  380  PHE380     -0.0003
     72  CE2        9.9390    6.4540  142.1020 C.ar  380  PHE380     -0.0003
     73  CZ        10.3370    7.4430  141.2060 C.ar  380  PHE380     -0.0000
     74  N         17.2090    1.5810  139.3490 N.3   382  TYR382     -0.1227
     75  CA        18.5350    2.1860  139.3470 C.3   382  TYR382      0.1736
     76  C         18.9040    2.8160  140.6920 C.2   382  TYR382      0.2595
     77  O         20.0790    2.8650  141.0530 O.2   382  TYR382     -0.2718
     78  CB        18.6150    3.2450  138.2460 C.3   382  TYR382      0.0548
     79  CG        17.8140    4.4890  138.5500 C.ar  382  TYR382     -0.0200
     80  CD1       18.3790    5.5490  139.2590 C.ar  382  TYR382     -0.0009
     81  CD2       16.4820    4.5920  138.1670 C.ar  382  TYR382     -0.0009
     82  CE1       17.6360    6.6800  139.5790 C.ar  382  TYR382      0.0417
     83  CE2       15.7280    5.7160  138.4830 C.ar  382  TYR382      0.0417
     84  CZ        16.3100    6.7570  139.1900 C.ar  382  TYR382      0.1957
     85  OH        15.5630    7.8670  139.5160 O.3   382  TYR382     -0.2866
     86  N         17.9060    3.2970  141.4300 N.am  383  GLN383     -0.1979
     87  CA        18.1660    3.9280  142.7210 C.3   383  GLN383      0.1601
     88  C         18.7580    2.9430  143.7200 C.2   383  GLN383      0.2287
     89  O         19.4860    3.3320  144.6330 O.2   383  GLN383     -0.2864
     90  CB        16.8870    4.5480  143.2870 C.3   383  GLN383      0.0394
     91  CG        16.2320    5.5680  142.3630 C.3   383  GLN383      0.0908
     92  CD        15.3010    6.5160  143.0940 C.2   383  GLN383      0.2608
     93  OE1       14.5600    7.2800  142.4740 O.2   383  GLN383     -0.2717
     94  NE2       15.3420    6.4790  144.4190 N.am  383  GLN383     -0.0878
     95  N         22.4220    2.6680  143.2310 N.3   386  PHE386     -0.1241
     96  CA        23.2120    3.7800  143.7430 C.3   386  PHE386      0.1605
     97  C         23.5300    3.6820  145.2280 C.2   386  PHE386      0.2264
     98  O         24.3840    4.4080  145.7320 O.2   386  PHE386     -0.2867
     99  CB        22.4970    5.1080  143.4890 C.3   386  PHE386      0.0534
    100  CG        22.4200    5.4930  142.0450 C.ar  386  PHE386     -0.0203
    101  CD1       23.4660    5.2010  141.1760 C.ar  386  PHE386     -0.0042
    102  CD2       21.3220    6.1940  141.5610 C.ar  386  PHE386     -0.0042
    103  CE1       23.4190    5.6050  139.8440 C.ar  386  PHE386     -0.0003
    104  CE2       21.2680    6.6040  140.2290 C.ar  386  PHE386     -0.0003
    105  CZ        22.3170    6.3090  139.3700 C.ar  386  PHE386     -0.0000
    106  N         23.6310    9.9720  129.0830 N.3   407  LEU407     -0.1245
    107  CA        22.5500   10.4920  129.9100 C.3   407  LEU407      0.1561
    108  C         21.7690   11.5830  129.1940 C.2   407  LEU407      0.2260
    109  O         20.5990   11.3940  128.8590 O.2   407  LEU407     -0.2867
    110  CB        23.1060   11.0400  131.2270 C.3   407  LEU407      0.0270
    111  CG        23.7250   10.0110  132.1760 C.3   407  LEU407      0.0019
    112  CD1       24.3280   10.7150  133.3760 C.3   407  LEU407      0.0001
    113  CD2       22.6630    9.0200  132.6160 C.3   407  LEU407      0.0001
    114  N         17.1470    7.8180  123.2830 N.3   414  SER414     -0.1217
    115  CA        17.6840    7.1910  124.4830 C.3   414  SER414      0.1889
    116  C         18.5780    5.9980  124.1600 C.2   414  SER414      0.2288
    117  O         18.4860    5.4120  123.0810 O.2   414  SER414     -0.2866
    118  CB        16.5400    6.7350  125.3860 C.3   414  SER414      0.2089
    119  OG        17.0330    6.0350  126.5140 O.3   414  SER414     -0.2183
    120  N         19.8560    4.2690  127.3090 N.3   416  LEU416     -0.1245
    121  CA        19.9570    3.6980  128.6510 C.3   416  LEU416      0.1561
    122  C         18.6100    3.1580  129.1270 C.2   416  LEU416      0.2260
    123  O         17.5940    3.8510  129.0590 O.2   416  LEU416     -0.2867
    124  CB        20.4530    4.7530  129.6450 C.3   416  LEU416      0.0270
    125  CG        21.8770    5.2780  129.4650 C.3   416  LEU416      0.0019
    126  CD1       22.1420    6.4030  130.4540 C.3   416  LEU416      0.0001
    127  CD2       22.8630    4.1400  129.6650 C.3   416  LEU416      0.0001
    128  N         16.8130    2.1680  132.2940 N.3   418  MET418     -0.1245
    129  CA        16.7220    2.1630  133.7490 C.3   418  MET418      0.1570
    130  C         15.8660    0.9870  134.2100 C.2   418  MET418      0.2261
    131  O         15.6890    0.7680  135.4070 O.2   418  MET418     -0.2867
    132  CB        16.1060    3.4770  134.2420 C.3   418  MET418      0.0387
    133  CG        17.0950    4.4570  134.8670 C.3   418  MET418      0.0595
    134  SD        18.5850    4.7360  133.8900 S.3   418  MET418     -0.1393
    135  CE        17.9110    5.5230  132.4520 C.3   418  MET418      0.0692
    136  N         21.2240   10.2520  147.0960 N.3   465  TYR465     -0.1241
    137  CA        20.3430    9.0890  147.0780 C.3   465  TYR465      0.1605
    138  C         20.5430    8.2180  148.3110 C.2   465  TYR465      0.2264
    139  O         19.6770    7.4160  148.6580 O.2   465  TYR465     -0.2867
    140  CB        20.6420    8.2200  145.8610 C.3   465  TYR465      0.0534
    141  CG        20.3340    8.8310  144.5170 C.ar  465  TYR465     -0.0201
    142  CD1       19.0360    8.8320  144.0090 C.ar  465  TYR465     -0.0009
    143  CD2       21.3530    9.3510  143.7230 C.ar  465  TYR465     -0.0009
    144  CE1       18.7630    9.3260  142.7390 C.ar  465  TYR465      0.0417
    145  CE2       21.0920    9.8480  142.4530 C.ar  465  TYR465      0.0417
    146  CZ        19.7980    9.8290  141.9660 C.ar  465  TYR465      0.1957
    147  OH        19.5520   10.2900  140.6960 O.3   465  TYR465     -0.2866
    148  N         10.1790    9.5920  131.4400 N.3   496  PHE496     -0.1227
    149  CA         9.8140    8.2360  131.8280 C.3   496  PHE496      0.1736
    150  C         10.3230    7.7470  133.1760 C.2   496  PHE496      0.2595
    151  O         10.2500    6.5540  133.4750 O.2   496  PHE496     -0.2718
    152  CB        10.2450    7.2800  130.7210 C.3   496  PHE496      0.0547
    153  CG         9.6680    7.6280  129.3820 C.ar  496  PHE496     -0.0202
    154  CD1       10.4530    7.5790  128.2360 C.ar  496  PHE496     -0.0042
    155  CD2        8.3380    8.0200  129.2680 C.ar  496  PHE496     -0.0042
    156  CE1        9.9250    7.9180  126.9960 C.ar  496  PHE496     -0.0003
    157  CE2        7.8000    8.3610  128.0350 C.ar  496  PHE496     -0.0003
    158  CZ         8.5960    8.3100  126.8960 C.ar  496  PHE496     -0.0000
    159  N         10.8390    8.6640  133.9850 N.am  497  VAL497     -0.1966
    160  CA        11.3240    8.3210  135.3170 C.3   497  VAL497      0.1727
    161  C         10.5050    9.1560  136.2970 C.2   497  VAL497      0.2616
    162  O         10.2240    8.7340  137.4180 O.2   497  VAL497     -0.2715
    163  CB        12.8250    8.6420  135.4800 C.3   497  VAL497      0.0290
    164  CG1       13.0680   10.1300  135.2790 C.3   497  VAL497      0.0023
    165  CG2       13.3000    8.2000  136.8570 C.3   497  VAL497      0.0023
    166  N         10.1280   10.3470  135.8480 N.am  498  LEU498     -0.1977
    167  CA         9.3110   11.2620  136.6310 C.3   498  LEU498      0.1596
    168  C          8.0800   11.5650  135.7800 C.2   498  LEU498      0.2287
    169  O          7.9580   12.6440  135.1950 O.2   498  LEU498     -0.2864
    170  CB        10.0710   12.5570  136.9320 C.3   498  LEU498      0.0297
    171  CG        11.3620   12.4660  137.7500 C.3   498  LEU498      0.0022
    172  CD1       11.8150   13.8800  138.0870 C.3   498  LEU498      0.0001
    173  CD2       11.1440   11.6680  139.0320 C.3   498  LEU498      0.0001
    174  N         13.4650   14.1460  130.1040 N.3   523  HIS523     -0.1226
    175  CA        13.7650   14.3740  131.5120 C.3   523  HIS523      0.1752
    176  C         14.6040   15.6300  131.7170 C.2   523  HIS523      0.2596
    177  O         14.4220   16.3590  132.6930 O.2   523  HIS523     -0.2718
    178  CB        14.5140   13.1740  132.0880 C.3   523  HIS523      0.0759
    179  CG        15.0890   13.4200  133.4480 C.ar  523  HIS523      0.0818
    180  ND1       14.3080   13.5500  134.5750 N.ar  523  HIS523     -0.2268
    181  CD2       16.3700   13.5810  133.8570 C.ar  523  HIS523      0.1154
    182  CE1       15.0820   13.7780  135.6210 C.ar  523  HIS523      0.1986
    183  NE2       16.3380   13.8020  135.2120 N.ar  523  HIS523     -0.2212
    184  N         15.5320   15.8720  130.7970 N.am  524  TRP524     -0.1976
    185  CA        16.4020   17.0380  130.8760 C.3   524  TRP524      0.1640
    186  C         15.6750   18.2190  130.2360 C.2   524  TRP524      0.2290
    187  O         16.0160   18.6670  129.1380 O.2   524  TRP524     -0.2864
    188  CB        17.7230   16.7440  130.1590 C.3   524  TRP524      0.0576
    189  CG        18.2360   15.3560  130.4450 C.ar  524  TRP524      0.0006
    190  CD1       18.0250   14.2310  129.6930 C.ar  524  TRP524      0.0946
    191  CD2       18.9720   14.9290  131.6010 C.ar  524  TRP524      0.0152
    192  NE1       18.5790   13.1350  130.3090 N.ar  524  TRP524     -0.2442
    193  CE2       19.1660   13.5330  131.4810 C.ar  524  TRP524      0.0810
    194  CE3       19.4850   15.5900  132.7270 C.ar  524  TRP524      0.0012
    195  CZ2       19.8500   12.7850  132.4470 C.ar  524  TRP524      0.0191
    196  CZ3       20.1660   14.8430  133.6880 C.ar  524  TRP524      0.0001
    197  CH2       20.3410   13.4550  133.5390 C.ar  524  TRP524      0.0015
@<TRIPOS>BOND
     1   117   116    2
     2   114   115    1
     3   116   115    1
     4   115   118    1
     5   118   119    1
     6   158   156   ar
     7   158   157   ar
     8   156   154   ar
     9   120   121    1
    10   157   155   ar
    11   154   153   ar
    12   121   122    1
    13   121   124    1
    14   109   108    2
    15   123   122    2
    16   106   107    1
    17   187   186    2
    18   108   107    1
    19   155   153   ar
    20   153   152    1
    21   125   124    1
    22   125   127    1
    23   125   126    1
    24   190   192   ar
    25   190   189   ar
    26   107   110    1
    27   174   175    1
    28   188   189    1
    29   188   185    1
    30   186   185    1
    31   192   193   ar
    32   189   191   ar
    33   152   149    1
    34   184   185    1
    35   184   176   am
    36   110   111    1
    37   148   149    1
    38   193   191   ar
    39   193   195   ar
    40   175   176    1
    41   175   178    1
    42   191   194   ar
    43   176   177    2
    44   149   150    1
    45   178   179    1
    46   111   113    1
    47   111   112    1
    48   128   129    1
    49   195   197   ar
    50   135   134    1
    51   194   196   ar
    52   150   151    2
    53   150   159   am
    54   179   181   ar
    55   179   180   ar
    56   197   196   ar
    57   129   130    1
    58   129   132    1
    59   181   183   ar
    60   134   133    1
    61   159   160    1
    62   130   131    2
    63   132   133    1
    64   180   182   ar
    65   169   168    2
    66   183   182   ar
    67   164   163    1
    68   160   163    1
    69   160   161    1
    70   163   165    1
    71    15    14    2
    72   168   167    1
    73   166   161   am
    74   166   167    1
    75    17    18    1
    76    17    16    1
    77    18    12    1
    78   161   162    2
    79   167   170    1
    80    14    13    1
    81   170   171    1
    82    12    13    1
    83    12     3   am
    84     4     3    2
    85    16    13    1
    86   171   172    1
    87   171   173    1
    88     3     2    1
    89    81    83   ar
    90    81    79   ar
    91    78    79    1
    92    78    75    1
    93    83    84   ar
    94    79    80   ar
    95    26    24   ar
    96     9     7   ar
    97     9    11   ar
    98    23    24    1
    99    23    20    1
   100    49    50    1
   101     7     6   ar
   102    24    25   ar
   103    19    20    1
   104    84    85    1
   105    84    82   ar
   106    63    64    1
   107    80    82   ar
   108    75    74    1
   109    75    76    1
   110     2     1    1
   111     2     5    1
   112   105   103   ar
   113   105   104   ar
   114    20    21    1
   115    11    10   ar
   116   103   101   ar
   117     6     5    1
   118     6     8   ar
   119   104   102   ar
   120    64    65    1
   121    64    67    1
   122    50    51    1
   123    50    53    1
   124    71    69   ar
   125    71    73   ar
   126    69    68   ar
   127    54    53    1
   128    65    66    2
   129    76    77    2
   130    76    86   am
   131   147   146    1
   132    10     8   ar
   133    62    56    1
   134    62    61    1
   135    51    52    2
   136    51    56   am
   137    21    27   am
   138    21    22    2
   139   101   100   ar
   140    53    55    1
   141    73    72   ar
   142    56    57    1
   143    68    67    1
   144    68    70   ar
   145    86    87    1
   146    60    61    1
   147    60    57    1
   148   102   100   ar
   149    27    28    1
   150   146   145   ar
   151   146   144   ar
   152    57    58    1
   153   100    99    1
   154    72    70   ar
   155    91    92    1
   156    91    90    1
   157   145   143   ar
   158    93    92    2
   159    87    90    1
   160    87    88    1
   161   144   142   ar
   162    33    35   ar
   163    33    32   ar
   164    28    31    1
   165    28    29    1
   166    92    94   am
   167    95    96    1
   168    31    32    1
   169    29    30    2
   170    35    36   ar
   171    99    96    1
   172    58    59    2
   173    32    34   ar
   174    88    89    2
   175   143   141   ar
   176    96    97    1
   177   142   141   ar
   178    41    42    1
   179   141   140    1
   180    36    34   ar
   181    36    38   ar
   182    34    37   ar
   183    97    98    2
   184    38    40   ar
   185    42    45    1
   186    42    43    1
   187    45    46    1
   188   140   137    1
   189    37    39   ar
   190    48    47    1
   191    40    39   ar
   192    43    44    2
   193    46    47    1
   194   137   136    1
   195   137   138    1
   196   138   139    2
