@<TRIPOS>MOLECULE
tmp/1zd5A00.pdb
 210 205 0 0 0
SMALL
GASTEIGER

@<TRIPOS>ATOM
      1  N        -23.8560   -9.7880   64.9280 N.3   266  PHE266     -0.1228
      2  CA       -23.5690  -11.2060   65.0900 C.3   266  PHE266      0.1721
      3  C        -23.0910  -11.5360   66.4930 C.2   266  PHE266      0.2437
      4  O        -22.2470  -10.8340   67.0510 O.2   266  PHE266     -0.2733
      5  CB       -22.5000  -11.6280   64.0770 C.3   266  PHE266      0.0547
      6  CG       -21.9420  -13.0030   64.3170 C.ar  266  PHE266     -0.0202
      7  CD1      -21.0180  -13.2270   65.3340 C.ar  266  PHE266     -0.0042
      8  CD2      -22.3540  -14.0780   63.5370 C.ar  266  PHE266     -0.0042
      9  CE1      -20.5110  -14.5000   65.5760 C.ar  266  PHE266     -0.0003
     10  CE2      -21.8580  -15.3530   63.7650 C.ar  266  PHE266     -0.0003
     11  CZ       -20.9320  -15.5680   64.7900 C.ar  266  PHE266     -0.0000
     12  N        -23.6500  -12.5870   67.1140 N.am  267  PRO267     -0.2729
     13  CA       -24.6790  -13.4920   66.5980 C.3   267  PRO267      0.1401
     14  C        -25.9270  -13.2180   67.4510 C.2   267  PRO267      0.2269
     15  O        -26.1760  -13.9040   68.4430 O.2   267  PRO267     -0.2865
     16  CB       -24.0750  -14.8600   66.8620 C.3   267  PRO267      0.0296
     17  CG       -23.4220  -14.6690   68.2130 C.3   267  PRO267      0.0237
     18  CD       -22.9600  -13.2020   68.2650 C.3   267  PRO267      0.0939
     19  N        -22.9050   -3.6570   65.3370 N.3   334  ASP334     -0.1225
     20  CA       -22.0000   -4.6980   64.8920 C.3   334  ASP334      0.1805
     21  C        -22.1470   -4.8770   63.3810 C.2   334  ASP334      0.2597
     22  O        -22.0760   -3.9000   62.6330 O.2   334  ASP334     -0.2718
     23  CB       -22.3210   -5.9970   65.6250 C.3   334  ASP334      0.1424
     24  CG       -21.2500   -7.0280   65.4500 C.2   334  ASP334      0.3668
     25  OD1      -20.1120   -6.7540   65.8730 O.co2 334  ASP334     -0.2456
     26  OD2      -21.5460   -8.1010   64.8880 O.co2 334  ASP334     -0.2456
     27  N        -22.3490   -6.1110   62.9220 N.am  335  TRP335     -0.1976
     28  CA       -22.5130   -6.3330   61.4890 C.3   335  TRP335      0.1640
     29  C        -23.6730   -5.5010   60.9700 C.2   335  TRP335      0.2290
     30  O        -23.6560   -5.0510   59.8290 O.2   335  TRP335     -0.2864
     31  CB       -22.7490   -7.8150   61.1770 C.3   335  TRP335      0.0576
     32  CG       -21.4970   -8.5090   60.7490 C.ar  335  TRP335      0.0006
     33  CD1      -20.7830   -9.4350   61.4580 C.ar  335  TRP335      0.0946
     34  CD2      -20.7820   -8.3010   59.5260 C.ar  335  TRP335      0.0152
     35  NE1      -19.6680   -9.8140   60.7510 N.ar  335  TRP335     -0.2442
     36  CE2      -19.6420   -9.1350   59.5610 C.ar  335  TRP335      0.0810
     37  CE3      -20.9920   -7.4900   58.4040 C.ar  335  TRP335      0.0012
     38  CZ2      -18.7130   -9.1810   58.5120 C.ar  335  TRP335      0.0191
     39  CZ3      -20.0690   -7.5360   57.3620 C.ar  335  TRP335      0.0001
     40  CH2      -18.9450   -8.3760   57.4260 C.ar  335  TRP335      0.0015
     41  N        -22.4680   -2.1200   60.1530 N.3   338  MET338     -0.1245
     42  CA       -21.7980   -2.1230   58.8590 C.3   338  MET338      0.1570
     43  C        -22.8330   -1.9950   57.7420 C.2   338  MET338      0.2261
     44  O        -22.6800   -1.2010   56.8160 O.2   338  MET338     -0.2867
     45  CB       -21.0270   -3.4330   58.6760 C.3   338  MET338      0.0387
     46  CG       -20.0960   -3.4510   57.4770 C.3   338  MET338      0.0595
     47  SD       -18.5570   -2.5760   57.8190 S.3   338  MET338     -0.1393
     48  CE       -19.0500   -0.8470   57.6270 C.3   338  MET338      0.0692
     49  N        -19.6740   -0.1620   65.4420 N.3   359  THR359     -0.1218
     50  CA       -19.1440   -0.3100   64.0900 C.3   359  THR359      0.1862
     51  C        -18.9210    1.0190   63.3870 C.2   359  THR359      0.2287
     52  O        -19.8620    1.7540   63.0950 O.2   359  THR359     -0.2866
     53  CB       -20.0830   -1.1330   63.2190 C.3   359  THR359      0.1770
     54  OG1      -20.4360   -2.3330   63.9120 O.3   359  THR359     -0.2211
     55  CG2      -19.4110   -1.4790   61.8990 C.3   359  THR359      0.0375
     56  N         -9.1030   -7.3880   51.7450 N.3   370  PRO370     -0.2116
     57  CA        -9.6080   -7.5030   53.1180 C.3   370  PRO370      0.1372
     58  C         -8.8450   -8.5380   53.9400 C.2   370  PRO370      0.2244
     59  O         -8.3580   -8.2380   55.0300 O.2   370  PRO370     -0.2868
     60  CB       -11.0690   -7.8930   52.9150 C.3   370  PRO370      0.0268
     61  CG       -11.4060   -7.2440   51.6170 C.3   370  PRO370      0.0207
     62  CD       -10.1930   -7.5410   50.7690 C.3   370  PRO370      0.0892
     63  N         -5.6030   -7.2430   55.2590 N.3   373  SER373     -0.1202
     64  CA        -5.8610   -6.2210   56.2650 C.3   373  SER373      0.2020
     65  C         -6.1670   -6.8410   57.6180 C.2   373  SER373      0.2618
     66  O         -5.5310   -6.5160   58.6190 O.2   373  SER373     -0.2717
     67  CB        -7.0380   -5.3420   55.8390 C.3   373  SER373      0.2103
     68  OG        -6.7550   -4.6510   54.6360 O.3   373  SER373     -0.2182
     69  N         -7.1410   -7.7420   57.6380 N.am  374  ILE374     -0.1979
     70  CA        -7.5460   -8.4020   58.8710 C.3   374  ILE374      0.1595
     71  C         -6.4480   -9.2650   59.4880 C.2   374  ILE374      0.2287
     72  O         -6.3760   -9.3920   60.7110 O.2   374  ILE374     -0.2864
     73  CB        -8.8150   -9.2370   58.6380 C.3   374  ILE374      0.0276
     74  CG1       -9.9710   -8.2940   58.3020 C.3   374  ILE374      0.0022
     75  CG2       -9.1430  -10.0620   59.8680 C.3   374  ILE374      0.0022
     76  CD1      -11.2410   -8.9900   57.8950 C.3   374  ILE374      0.0001
     77  N         -8.5930   -9.3210   65.4600 N.3   380  PHE380     -0.1241
     78  CA        -9.4800   -9.8020   64.4010 C.3   380  PHE380      0.1605
     79  C         -9.1440  -11.2110   63.9450 C.2   380  PHE380      0.2264
     80  O         -9.5090  -11.6090   62.8400 O.2   380  PHE380     -0.2867
     81  CB        -9.4200   -8.8960   63.1740 C.3   380  PHE380      0.0534
     82  CG       -10.2060   -7.6420   63.3190 C.ar  380  PHE380     -0.0203
     83  CD1      -11.4680   -7.6720   63.9020 C.ar  380  PHE380     -0.0042
     84  CD2       -9.6860   -6.4260   62.8970 C.ar  380  PHE380     -0.0042
     85  CE1      -12.2010   -6.5140   64.0690 C.ar  380  PHE380     -0.0003
     86  CE2      -10.4130   -5.2540   63.0590 C.ar  380  PHE380     -0.0003
     87  CZ       -11.6770   -5.3000   63.6500 C.ar  380  PHE380     -0.0000
     88  N        -10.1820  -14.3190   65.0990 N.3   382  TYR382     -0.1227
     89  CA       -11.3640  -15.1570   64.9460 C.3   382  TYR382      0.1736
     90  C        -12.0410  -15.0760   63.5710 C.2   382  TYR382      0.2595
     91  O        -12.5950  -16.0690   63.1050 O.2   382  TYR382     -0.2718
     92  CB       -12.3770  -14.8080   66.0270 C.3   382  TYR382      0.0548
     93  CG       -12.9070  -13.4110   65.8800 C.ar  382  TYR382     -0.0200
     94  CD1      -14.1060  -13.1680   65.2160 C.ar  382  TYR382     -0.0009
     95  CD2      -12.1810  -12.3220   66.3520 C.ar  382  TYR382     -0.0009
     96  CE1      -14.5680  -11.8730   65.0230 C.ar  382  TYR382      0.0417
     97  CE2      -12.6300  -11.0220   66.1640 C.ar  382  TYR382      0.0417
     98  CZ       -13.8220  -10.8030   65.4950 C.ar  382  TYR382      0.1957
     99  OH       -14.2390   -9.5120   65.2600 O.3   382  TYR382     -0.2866
    100  N        -12.0080  -13.9080   62.9290 N.am  383  GLN383     -0.1979
    101  CA       -12.6440  -13.7360   61.6240 C.3   383  GLN383      0.1601
    102  C        -12.0570  -14.6960   60.6010 C.2   383  GLN383      0.2287
    103  O        -12.7460  -15.1480   59.6870 O.2   383  GLN383     -0.2864
    104  CB       -12.5080  -12.2870   61.1420 C.3   383  GLN383      0.0394
    105  CG       -13.1390  -11.2690   62.0910 C.3   383  GLN383      0.0908
    106  CD       -13.4490   -9.9370   61.4220 C.2   383  GLN383      0.2608
    107  OE1      -13.8490   -8.9760   62.0790 O.2   383  GLN383     -0.2717
    108  NE2      -13.2700   -9.8790   60.1090 N.am  383  GLN383     -0.0878
    109  N        -13.5600  -18.0280   61.2680 N.3   386  PHE386     -0.1241
    110  CA       -14.9320  -18.1710   60.7830 C.3   386  PHE386      0.1605
    111  C        -14.9980  -18.4320   59.2820 C.2   386  PHE386      0.2264
    112  O        -16.0680  -18.7240   58.7500 O.2   386  PHE386     -0.2867
    113  CB       -15.7510  -16.9080   61.0610 C.3   386  PHE386      0.0534
    114  CG       -16.0560  -16.6670   62.5100 C.ar  386  PHE386     -0.0203
    115  CD1      -15.7490  -17.6160   63.4810 C.ar  386  PHE386     -0.0042
    116  CD2      -16.6760  -15.4830   62.9020 C.ar  386  PHE386     -0.0042
    117  CE1      -16.0610  -17.3870   64.8270 C.ar  386  PHE386     -0.0003
    118  CE2      -16.9910  -15.2450   64.2440 C.ar  386  PHE386     -0.0003
    119  CZ       -16.6820  -16.2000   65.2080 C.ar  386  PHE386     -0.0000
    120  N        -20.4410  -15.5280   75.2360 N.3   407  LEU407     -0.1245
    121  CA       -20.3210  -14.3200   74.4280 C.3   407  LEU407      0.1561
    122  C        -20.8670  -13.0880   75.1330 C.2   407  LEU407      0.2260
    123  O        -20.1450  -12.1210   75.3500 O.2   407  LEU407     -0.2867
    124  CB       -21.0600  -14.4900   73.1000 C.3   407  LEU407      0.0270
    125  CG       -20.5100  -15.5510   72.1480 C.3   407  LEU407      0.0019
    126  CD1      -21.4080  -15.6500   70.9360 C.3   407  LEU407      0.0001
    127  CD2      -19.0820  -15.1960   71.7470 C.3   407  LEU407      0.0001
    128  N        -10.6040  -13.1140   71.7860 N.3   418  MET418     -0.1245
    129  CA       -10.7100  -13.0730   70.3310 C.3   418  MET418      0.1570
    130  C         -9.3590  -13.0900   69.6220 C.2   418  MET418      0.2261
    131  O         -9.3050  -13.2510   68.4040 O.2   418  MET418     -0.2867
    132  CB       -11.5120  -11.8420   69.8820 C.3   418  MET418      0.0387
    133  CG       -12.8860  -11.7230   70.5310 C.3   418  MET418      0.0595
    134  SD       -13.8020  -13.2820   70.5520 S.3   418  MET418     -0.1393
    135  CE       -14.5010  -13.2860   68.9210 C.3   418  MET418      0.0692
    136  N        -12.9030  -21.1200   69.6010 N.3   427  LEU427     -0.1245
    137  CA       -13.2650  -19.9420   70.3770 C.3   427  LEU427      0.1561
    138  C        -13.3610  -20.2180   71.8670 C.2   427  LEU427      0.2260
    139  O        -13.0610  -19.3490   72.6810 O.2   427  LEU427     -0.2867
    140  CB       -14.6000  -19.3750   69.8880 C.3   427  LEU427      0.0270
    141  CG       -14.5410  -18.3660   68.7410 C.3   427  LEU427      0.0019
    142  CD1      -15.9470  -18.0460   68.2690 C.3   427  LEU427      0.0001
    143  CD2      -13.8400  -17.1040   69.2170 C.3   427  LEU427      0.0001
    144  N        -19.4950  -13.2010   57.4790 N.3   465  TYR465     -0.1241
    145  CA       -18.0390  -13.0920   57.5770 C.3   465  TYR465      0.1605
    146  C        -17.3260  -13.7360   56.3950 C.2   465  TYR465      0.2264
    147  O        -16.0970  -13.7360   56.3410 O.2   465  TYR465     -0.2867
    148  CB       -17.5420  -13.8090   58.8270 C.3   465  TYR465      0.0534
    149  CG       -17.8100  -13.1100   60.1270 C.ar  465  TYR465     -0.0201
    150  CD1      -17.0640  -11.9930   60.5070 C.ar  465  TYR465     -0.0009
    151  CD2      -18.7710  -13.5970   61.0070 C.ar  465  TYR465     -0.0009
    152  CE1      -17.2660  -11.3860   61.7350 C.ar  465  TYR465      0.0417
    153  CE2      -18.9840  -13.0010   62.2340 C.ar  465  TYR465      0.0417
    154  CZ       -18.2310  -11.9010   62.5950 C.ar  465  TYR465      0.1957
    155  OH       -18.4520  -11.3240   63.8200 O.3   465  TYR465     -0.2866
    156  N        -15.9810  -11.0630   52.3880 N.3   468  MET468     -0.1245
    157  CA       -15.0800   -9.9200   52.4320 C.3   468  MET468      0.1570
    158  C        -14.5690   -9.5160   51.0510 C.2   468  MET468      0.2261
    159  O        -14.5560   -8.3330   50.7180 O.2   468  MET468     -0.2867
    160  CB       -13.9150  -10.2260   53.3600 C.3   468  MET468      0.0387
    161  CG       -14.3650  -10.5560   54.7590 C.3   468  MET468      0.0595
    162  SD       -12.9760  -11.0250   55.7570 S.3   468  MET468     -0.1393
    163  CE       -12.7470  -12.6970   55.2220 C.3   468  MET468      0.0692
    164  N        -12.8590   -5.0390   70.3860 N.3   497  VAL497     -0.1231
    165  CA       -12.7380   -5.5430   69.0250 C.3   497  VAL497      0.1692
    166  C        -13.1070   -4.3750   68.0940 C.2   497  VAL497      0.2591
    167  O        -12.3670   -4.0520   67.1580 O.2   497  VAL497     -0.2718
    168  CB       -13.6460   -6.7780   68.7950 C.3   497  VAL497      0.0266
    169  CG1      -15.0930   -6.4330   69.0760 C.3   497  VAL497      0.0020
    170  CG2      -13.4670   -7.2930   67.3830 C.3   497  VAL497      0.0020
    171  N        -14.2380   -3.7300   68.3690 N.am  498  LEU498     -0.1980
    172  CA       -14.6660   -2.5650   67.5990 C.3   498  LEU498      0.1596
    173  C        -14.3410   -1.3450   68.4670 C.2   498  LEU498      0.2287
    174  O        -15.2320   -0.6650   68.9770 O.2   498  LEU498     -0.2864
    175  CB       -16.1670   -2.6300   67.3030 C.3   498  LEU498      0.0297
    176  CG       -16.6550   -3.7750   66.4020 C.3   498  LEU498      0.0022
    177  CD1      -18.1550   -3.6250   66.1410 C.3   498  LEU498      0.0001
    178  CD2      -15.8890   -3.7670   65.0730 C.3   498  LEU498      0.0001
    179  N        -11.0480    3.2430   66.1020 N.3   502  MET502     -0.1245
    180  CA       -11.2530    2.8950   64.6980 C.3   502  MET502      0.1570
    181  C        -12.1870    3.8560   63.9680 C.2   502  MET502      0.2261
    182  O        -12.2940    3.8060   62.7440 O.2   502  MET502     -0.2867
    183  CB       -11.8190    1.4790   64.5790 C.3   502  MET502      0.0387
    184  CG       -10.8860    0.3740   65.0290 C.3   502  MET502      0.0595
    185  SD       -11.7160   -1.2330   64.9980 S.3   502  MET502     -0.1393
    186  CE       -11.5870   -1.6580   63.2600 C.3   502  MET502      0.0692
    187  N        -18.9090   -4.6760   74.0510 N.3   523  HIS523     -0.1226
    188  CA       -19.3680   -4.8240   72.6750 C.3   523  HIS523      0.1752
    189  C        -20.8910   -4.9160   72.5610 C.2   523  HIS523      0.2596
    190  O        -21.4920   -4.3410   71.6490 O.2   523  HIS523     -0.2718
    191  CB       -18.7500   -6.0710   72.0570 C.3   523  HIS523      0.0759
    192  CG       -19.3820   -6.4680   70.7630 C.ar  523  HIS523      0.0818
    193  ND1      -19.2560   -5.7170   69.6150 N.ar  523  HIS523     -0.2268
    194  CD2      -20.1750   -7.5170   70.4460 C.ar  523  HIS523      0.1154
    195  CE1      -19.9470   -6.2890   68.6450 C.ar  523  HIS523      0.1986
    196  NE2      -20.5130   -7.3820   69.1230 N.ar  523  HIS523     -0.2212
    197  N        -21.5050   -5.6480   73.4880 N.am  524  TRP524     -0.1976
    198  CA       -22.9540   -5.8390   73.5070 C.3   524  TRP524      0.1640
    199  C        -23.6390   -4.6040   74.0690 C.2   524  TRP524      0.2290
    200  O        -24.3720   -4.6630   75.0580 O.2   524  TRP524     -0.2864
    201  CB       -23.2750   -7.0810   74.3340 C.3   524  TRP524      0.0576
    202  CG       -22.3400   -8.1830   73.9670 C.ar  524  TRP524      0.0006
    203  CD1      -21.2090   -8.5630   74.6360 C.ar  524  TRP524      0.0946
    204  CD2      -22.3700   -8.9530   72.7600 C.ar  524  TRP524      0.0152
    205  NE1      -20.5290   -9.5160   73.9150 N.ar  524  TRP524     -0.2442
    206  CE2      -21.2180   -9.7750   72.7580 C.ar  524  TRP524      0.0810
    207  CE3      -23.2580   -9.0250   71.6760 C.ar  524  TRP524      0.0012
    208  CZ2      -20.9290  -10.6620   71.7080 C.ar  524  TRP524      0.0191
    209  CZ3      -22.9730   -9.9030   70.6360 C.ar  524  TRP524      0.0001
    210  CH2      -21.8160  -10.7090   70.6600 C.ar  524  TRP524      0.0015
@<TRIPOS>BOND
     1   159   158    2
     2    62    61    1
     3    62    56    1
     4   158   157    1
     5    61    60    1
     6    56    57    1
     7   156   157    1
     8   157   160    1
     9    60    57    1
    10    57    58    1
    11   160   161    1
    12    58    59    2
    13    68    67    1
    14   161   162    1
    15   163   162    1
    16    63    64    1
    17    67    64    1
    18    64    65    1
    19   147   146    2
    20   146   145    1
    21    44    43    2
    22    39    40   ar
    23    39    37   ar
    24    40    38   ar
    25    46    47    1
    26    46    45    1
    27   144   145    1
    28   145   148    1
    29    65    69   am
    30    65    66    2
    31    48    47    1
    32    69    70    1
    33    43    42    1
    34    76    74    1
    35    74    73    1
    36    37    34   ar
    37    38    36   ar
    38    73    70    1
    39    73    75    1
    40    45    42    1
    41   112   111    2
    42   148   149    1
    43    42    41    1
    44    70    71    1
    45   111   110    1
    46    71    72    2
    47    34    36   ar
    48    34    32   ar
    49    36    35   ar
    50   103   102    2
    51    30    29    2
    52   108   106   am
    53   149   150   ar
    54   149   151   ar
    55   150   152   ar
    56   102   101    1
    57    32    31    1
    58    32    33   ar
    59    35    33   ar
    60   110   113    1
    61   110   109    1
    62    29    28    1
    63   151   153   ar
    64   113   114    1
    65   104   101    1
    66   104   105    1
    67    31    28    1
    68   106   107    2
    69   106   105    1
    70    28    27    1
    71   101   100    1
    72   152   154   ar
    73    55    53    1
    74   153   154   ar
    75   114   116   ar
    76   114   115   ar
    77   154   155    1
    78    22    21    2
    79   182   181    2
    80    80    79    2
    81    84    86   ar
    82    84    82   ar
    83   116   118   ar
    84    27    21   am
    85   100    90   am
    86    86    87   ar
    87    52    51    2
    88    91    90    2
    89    81    82    1
    90    81    78    1
    91    53    54    1
    92    53    50    1
    93   186   185    1
    94    82    83   ar
    95    21    20    1
    96    51    50    1
    97   115   117   ar
    98     8    10   ar
    99     8     6   ar
   100    90    89    1
   101    87    85   ar
   102    10    11   ar
   103    83    85   ar
   104    79    78    1
   105   181   180    1
   106     5     6    1
   107     5     2    1
   108    50    49    1
   109   118   119   ar
   110     6     7   ar
   111    78    77    1
   112   183   180    1
   113   183   184    1
   114   180   179    1
   115    11     9   ar
   116   117   119   ar
   117    26    24   ar
   118    20    19    1
   119    20    23    1
   120     1     2    1
   121    89    88    1
   122    89    92    1
   123   185   184    1
   124    96    94   ar
   125    96    98   ar
   126   178   176    1
   127     2     3    1
   128    94    93   ar
   129    99    98    1
   130     7     9   ar
   131    24    23    1
   132    24    25   ar
   133    98    97   ar
   134    93    92    1
   135    93    95   ar
   136   177   176    1
   137    97    95   ar
   138   176   175    1
   139     3     4    2
   140     3    12   am
   141    13    16    1
   142    13    12    1
   143    13    14    1
   144    16    17    1
   145    12    18    1
   146   167   166    2
   147   175   172    1
   148   170   168    1
   149    14    15    2
   150   172   171    1
   151   172   173    1
   152   166   171   am
   153   166   165    1
   154    17    18    1
   155   142   141    1
   156   131   130    2
   157   173   174    2
   158   195   196   ar
   159   195   193   ar
   160   141   143    1
   161   141   140    1
   162   168   165    1
   163   168   169    1
   164   135   134    1
   165   165   164    1
   166   196   194   ar
   167   136   137    1
   168   193   192   ar
   169   130   129    1
   170   132   129    1
   171   132   133    1
   172   140   137    1
   173   129   128    1
   174   137   138    1
   175   194   192   ar
   176   133   134    1
   177   209   210   ar
   178   209   207   ar
   179   210   208   ar
   180   192   191    1
   181   126   125    1
   182   190   189    2
   183   207   204   ar
   184   208   206   ar
   185   127   125    1
   186   138   139    2
   187   191   188    1
   188   125   124    1
   189   189   188    1
   190   189   197   am
   191   188   187    1
   192   206   204   ar
   193   206   205   ar
   194   204   202   ar
   195   124   121    1
   196   197   198    1
   197   198   199    1
   198   198   201    1
   199   205   203   ar
   200   202   201    1
   201   202   203   ar
   202   199   200    2
   203   121   122    1
   204   121   120    1
   205   122   123    2
