@<TRIPOS>MOLECULE
tmp/1zdlA01.pdb
 224 214 0 0 0
SMALL
GASTEIGER

@<TRIPOS>ATOM
      1  N        -20.1550   71.3850  -10.2130 N.3    57  LYS57      -0.1245
      2  CA       -19.3090   71.3360  -11.3990 C.3    57  LYS57       0.1561
      3  C        -20.1800   71.4240  -12.6380 C.2    57  LYS57       0.2260
      4  O        -20.1790   72.4280  -13.3450 O.2    57  LYS57      -0.2867
      5  CB       -18.5290   70.0270  -11.4520 C.3    57  LYS57       0.0271
      6  CG       -17.9860   69.7550  -12.8390 C.3    57  LYS57       0.0035
      7  CD       -17.6810   68.3040  -13.0180 C.3    57  LYS57       0.0206
      8  CE       -18.9430   67.4710  -12.9850 C.3    57  LYS57       0.1093
      9  NZ       -18.5880   66.0280  -12.9590 N.3    57  LYS57      -0.1314
     10  N         -6.5350   66.0480   -1.5880 N.3   156  ARG156     -0.1245
     11  CA        -5.1690   65.8950   -1.1110 C.3   156  ARG156      0.1563
     12  C         -4.4400   67.2070   -1.3370 C.2   156  ARG156      0.2260
     13  O         -4.7810   67.9570   -2.2490 O.2   156  ARG156     -0.2867
     14  CB        -4.4610   64.7750   -1.8720 C.3   156  ARG156      0.0307
     15  CG        -2.9740   64.6770   -1.5890 C.3   156  ARG156      0.0489
     16  CD        -2.2930   63.8590   -2.6620 C.3   156  ARG156      0.2205
     17  NE        -2.7440   62.4730   -2.6450 N.pl3 156  ARG156     -0.0865
     18  CZ        -2.5640   61.6250   -3.6490 C.cat 156  ARG156      0.5346
     19  NH1       -1.9450   62.0300   -4.7530 N.pl3 156  ARG156      0.1354
     20  NH2       -2.9920   60.3720   -3.5470 N.pl3 156  ARG156      0.1354
     21  N         -0.4020   69.3460   -1.4260 N.3   158  PRO158     -0.2116
     22  CA         1.0110   69.1460   -1.7660 C.3   158  PRO158      0.1372
     23  C          1.7950   68.9100   -0.4890 C.2   158  PRO158      0.2244
     24  O          1.3440   69.2790    0.6000 O.2   158  PRO158     -0.2868
     25  CB         1.4130   70.4710   -2.4100 C.3   158  PRO158      0.0268
     26  CG         0.1380   71.0050   -2.9420 C.3   158  PRO158      0.0207
     27  CD        -0.8410   70.6900   -1.8420 C.3   158  PRO158      0.0892
     28  N         -3.1610   73.1950  -10.5690 N.3   187  VAL187     -0.1231
     29  CA        -2.1210   72.1790  -10.5190 C.3   187  VAL187      0.1692
     30  C         -2.7160   70.7690  -10.5360 C.2   187  VAL187      0.2593
     31  O         -2.9590   70.1730   -9.4890 O.2   187  VAL187     -0.2718
     32  CB        -1.2510   72.3410   -9.2600 C.3   187  VAL187      0.0266
     33  CG1        0.0450   71.5710   -9.4330 C.3   187  VAL187      0.0020
     34  CG2       -0.9780   73.8060   -9.0020 C.3   187  VAL187      0.0020
     35  N         -2.9530   70.2460  -11.7330 N.am  188  GLY188     -0.1942
     36  CA        -3.5090   68.9090  -11.8680 C.3   188  GLY188      0.2014
     37  C         -3.6130   68.4980  -13.3250 C.2   188  GLY188      0.2639
     38  O         -3.6200   69.3550  -14.2040 O.2   188  GLY188     -0.2714
     39  N         -3.7110   67.1990  -13.5890 N.am  189  ALA189     -0.1963
     40  CA        -3.7950   66.7190  -14.9650 C.3   189  ALA189      0.1728
     41  C         -4.8720   65.6670  -15.2580 C.2   189  ALA189      0.2617
     42  O         -4.7320   64.9070  -16.2200 O.2   189  ALA189     -0.2715
     43  CB        -2.4340   66.1860  -15.3910 C.3   189  ALA189      0.0334
     44  N         -5.9310   65.6100  -14.4460 N.am  190  SER190     -0.1936
     45  CA        -7.0040   64.6340  -14.6740 C.3   190  SER190      0.2055
     46  C         -8.4170   65.2020  -14.5380 C.2   190  SER190      0.2643
     47  O         -8.6720   66.3670  -14.8600 O.2   190  SER190     -0.2714
     48  CB        -6.8590   63.4240  -13.7350 C.3   190  SER190      0.2130
     49  OG        -7.5480   63.6070  -12.5100 O.3   190  SER190     -0.2179
     50  N         -9.3270   64.3500  -14.0700 N.am  191  TYR191     -0.1959
     51  CA       -10.7300   64.6960  -13.8770 C.3   191  TYR191      0.1771
     52  C        -10.9800   66.1040  -13.3310 C.2   191  TYR191      0.2619
     53  O        -11.3610   67.0130  -14.0780 O.2   191  TYR191     -0.2715
     54  CB       -11.3840   63.6770  -12.9480 C.3   191  TYR191      0.0574
     55  CG       -12.0530   62.5010  -13.6310 C.ar  191  TYR191     -0.0198
     56  CD1      -13.0450   62.6940  -14.5910 C.ar  191  TYR191     -0.0009
     57  CD2      -11.7650   61.1910  -13.2430 C.ar  191  TYR191     -0.0009
     58  CE1      -13.7430   61.6080  -15.1400 C.ar  191  TYR191      0.0417
     59  CE2      -12.4540   60.1000  -13.7810 C.ar  191  TYR191      0.0417
     60  CZ       -13.4450   60.3140  -14.7270 C.ar  191  TYR191      0.1957
     61  OH       -14.1520   59.2390  -15.2360 O.3   191  TYR191     -0.2866
     62  N        -10.7770   66.2780  -12.0270 N.am  192  VAL192     -0.1963
     63  CA       -11.0030   67.5690  -11.3800 C.3   192  VAL192      0.1727
     64  C        -10.3400   68.7120  -12.1270 C.2   192  VAL192      0.2616
     65  O        -11.0160   69.5430  -12.7430 O.2   192  VAL192     -0.2715
     66  CB       -10.4850   67.5800   -9.9240 C.3   192  VAL192      0.0290
     67  CG1      -10.4730   69.0000   -9.4000 C.3   192  VAL192      0.0023
     68  CG2      -11.3660   66.6990   -9.0350 C.3   192  VAL192      0.0023
     69  N         -9.0130   68.7420  -12.0610 N.am  193  ALA193     -0.1977
     70  CA        -8.2200   69.7740  -12.7090 C.3   193  ALA193      0.1597
     71  C         -8.8480   70.2710  -14.0010 C.2   193  ALA193      0.2287
     72  O         -9.3580   71.3900  -14.0730 O.2   193  ALA193     -0.2864
     73  CB        -6.8250   69.2480  -12.9850 C.3   193  ALA193      0.0319
     74  N        -11.6980   69.6010  -15.6780 N.3   195  GLU195     -0.1245
     75  CA       -13.0950   70.0410  -15.6330 C.3   195  GLU195      0.1567
     76  C        -13.2260   71.4530  -15.0800 C.2   195  GLU195      0.2260
     77  O        -13.8990   72.3040  -15.6690 O.2   195  GLU195     -0.2867
     78  CB       -13.9150   69.1050  -14.7640 C.3   195  GLU195      0.0388
     79  CG       -13.9790   67.7150  -15.2850 C.3   195  GLU195      0.1160
     80  CD       -15.0970   66.9380  -14.6510 C.2   195  GLU195      0.3649
     81  OE1      -15.1420   66.8890  -13.4060 O.co2 195  GLU195     -0.2457
     82  OE2      -15.9280   66.3790  -15.3990 O.co2 195  GLU195     -0.2457
     83  N         -1.4930   73.2330  -14.9020 N.3   210  MET210     -0.1245
     84  CA        -0.0930   72.8200  -14.7400 C.3   210  MET210      0.1570
     85  C          0.1060   71.3110  -14.5520 C.2   210  MET210      0.2261
     86  O          0.1730   70.8030  -13.4320 O.2   210  MET210     -0.2867
     87  CB         0.5560   73.5600  -13.5680 C.3   210  MET210      0.0387
     88  CG         2.0450   73.2540  -13.4020 C.3   210  MET210      0.0595
     89  SD         2.8200   74.1080  -12.0120 S.3   210  MET210     -0.1393
     90  CE         2.6270   75.7960  -12.5880 C.3   210  MET210      0.0692
     91  N          2.0900   67.8910  -14.4810 N.3   212  ARG212     -0.1231
     92  CA         3.4480   67.4740  -14.1970 C.3   212  ARG212      0.1694
     93  C          3.7990   66.3520  -15.1610 C.2   212  ARG212      0.2593
     94  O          4.9020   66.3240  -15.6890 O.2   212  ARG212     -0.2718
     95  CB         3.5920   67.0000  -12.7550 C.3   212  ARG212      0.0321
     96  CG         3.0370   65.6300  -12.4960 C.3   212  ARG212      0.0489
     97  CD         3.2300   65.2110  -11.0510 C.3   212  ARG212      0.2205
     98  NE         2.7360   63.8540  -10.8660 N.pl3 212  ARG212     -0.0865
     99  CZ         2.6300   63.2420   -9.6940 C.cat 212  ARG212      0.5346
    100  NH1        2.9840   63.8720   -8.5830 N.pl3 212  ARG212      0.1354
    101  NH2        2.1760   61.9930   -9.6360 N.pl3 212  ARG212      0.1354
    102  N          2.8660   65.4340  -15.4100 N.am  213  SER213     -0.1938
    103  CA         3.1260   64.3390  -16.3480 C.3   213  SER213      0.2055
    104  C          2.0810   64.2870  -17.4470 C.2   213  SER213      0.2642
    105  O          1.8270   65.2890  -18.1080 O.2   213  SER213     -0.2714
    106  CB         3.1660   62.9860  -15.6320 C.3   213  SER213      0.2130
    107  OG         3.4710   61.9370  -16.5460 O.3   213  SER213     -0.2179
    108  N          1.4800   63.1130  -17.6320 N.am  214  ILE214     -0.1977
    109  CA         0.4690   62.9010  -18.6640 C.3   214  ILE214      0.1596
    110  C         -0.9310   63.2130  -18.1740 C.2   214  ILE214      0.2287
    111  O         -1.1840   63.2240  -16.9730 O.2   214  ILE214     -0.2864
    112  CB         0.4770   61.4500  -19.1590 C.3   214  ILE214      0.0276
    113  CG1        0.1720   60.5060  -17.9970 C.3   214  ILE214      0.0022
    114  CG2        1.8210   61.1230  -19.7770 C.3   214  ILE214      0.0022
    115  CD1        0.2070   59.0430  -18.3840 C.3   214  ILE214      0.0001
    116  N         -4.2800   60.2000  -16.5590 N.3   217  ARG217     -0.1245
    117  CA        -3.5540   58.9420  -16.4930 C.3   217  ARG217      0.1563
    118  C         -4.5600   57.8180  -16.2210 C.2   217  ARG217      0.2260
    119  O         -5.3350   57.8820  -15.2660 O.2   217  ARG217     -0.2867
    120  CB        -2.5110   59.0290  -15.3740 C.3   217  ARG217      0.0307
    121  CG        -1.7750   57.7480  -15.0470 C.3   217  ARG217      0.0489
    122  CD        -0.7660   58.0340  -13.9570 C.3   217  ARG217      0.2205
    123  NE         0.1640   59.0780  -14.3750 N.pl3 217  ARG217     -0.0865
    124  CZ         1.1530   58.8960  -15.2430 C.cat 217  ARG217      0.5346
    125  NH1        1.3490   57.7020  -15.7800 N.pl3 217  ARG217      0.1354
    126  NH2        1.9330   59.9120  -15.5900 N.pl3 217  ARG217      0.1354
    127  N          5.2450   70.7130  -15.7160 N.3   242  CYS242     -0.1221
    128  CA         5.7760   71.5520  -14.6440 C.3   242  CYS242      0.1808
    129  C          5.2490   71.1910  -13.2630 C.2   242  CYS242      0.2601
    130  O          4.1450   70.6640  -13.1210 O.2   242  CYS242     -0.2717
    131  CB         5.4760   73.0050  -14.9540 C.3   242  CYS242      0.0970
    132  SG         5.9570   73.3920  -16.6300 S.3   242  CYS242     -0.0800
    133  N          6.0480   71.4780  -12.2420 N.am  243  VAL243     -0.1966
    134  CA         5.6630   71.1610  -10.8810 C.3   243  VAL243      0.1712
    135  C          5.8910   72.3460   -9.9500 C.2   243  VAL243      0.2458
    136  O          6.8160   73.1340  -10.1440 O.2   243  VAL243     -0.2730
    137  CB         6.4670   69.9610  -10.3430 C.3   243  VAL243      0.0289
    138  CG1        5.7510   69.3490   -9.1570 C.3   243  VAL243      0.0023
    139  CG2        6.6550   68.9320  -11.4230 C.3   243  VAL243      0.0023
    140  N          5.0240   72.4950   -8.9350 N.am  244  PRO244     -0.2727
    141  CA         5.0730   73.5610   -7.9300 C.3   244  PRO244      0.1402
    142  C          6.1200   73.2810   -6.8740 C.2   244  PRO244      0.2269
    143  O          6.3320   72.1360   -6.4830 O.2   244  PRO244     -0.2865
    144  CB         3.6730   73.5450   -7.3420 C.3   244  PRO244      0.0296
    145  CG         2.8420   73.0380   -8.4710 C.3   244  PRO244      0.0237
    146  CD         3.6780   71.9030   -8.9730 C.3   244  PRO244      0.0939
    147  N         -5.6400   70.2210   -7.8540 N.3   278  ALA278     -0.1231
    148  CA        -6.4650   69.1210   -8.3290 C.3   278  ALA278      0.1694
    149  C         -5.5190   67.9340   -8.4590 C.2   278  ALA278      0.2592
    150  O         -5.2590   67.4440   -9.5610 O.2   278  ALA278     -0.2718
    151  CB        -7.0660   69.4690   -9.6750 C.3   278  ALA278      0.0304
    152  N         -5.0140   67.4710   -7.3210 N.am  279  ILE279     -0.1966
    153  CA        -4.0450   66.3790   -7.2940 C.3   279  ILE279      0.1727
    154  C         -4.5280   65.1000   -6.6190 C.2   279  ILE279      0.2617
    155  O         -3.7320   64.3610   -6.0260 O.2   279  ILE279     -0.2715
    156  CB        -2.7640   66.8330   -6.5680 C.3   279  ILE279      0.0290
    157  CG1       -3.1150   67.2670   -5.1380 C.3   279  ILE279      0.0022
    158  CG2       -2.1180   67.9780   -7.3180 C.3   279  ILE279      0.0023
    159  CD1       -1.9400   67.7510   -4.3270 C.3   279  ILE279      0.0001
    160  N         -5.8250   64.8380   -6.6980 N.am  280  GLY280     -0.1940
    161  CA        -6.3520   63.6380   -6.0790 C.3   280  GLY280      0.2014
    162  C         -6.9970   63.9380   -4.7490 C.2   280  GLY280      0.2638
    163  O         -6.9000   65.0530   -4.2370 O.2   280  GLY280     -0.2714
    164  N         -7.6660   62.9400   -4.1920 N.am  281  ARG281     -0.1977
    165  CA        -8.3260   63.0980   -2.9090 C.3   281  ARG281      0.1597
    166  C         -7.7150   62.0320   -1.9950 C.2   281  ARG281      0.2287
    167  O         -6.8380   61.2780   -2.4330 O.2   281  ARG281     -0.2864
    168  CB        -9.8400   62.8960   -3.0740 C.3   281  ARG281      0.0334
    169  CG       -10.4360   63.6000   -4.3050 C.3   281  ARG281      0.0492
    170  CD       -11.3870   64.7320   -3.9620 C.3   281  ARG281      0.2205
    171  NE       -12.5500   64.2340   -3.2440 N.pl3 281  ARG281     -0.0865
    172  CZ       -13.4670   65.0110   -2.6740 C.cat 281  ARG281      0.5346
    173  NH1      -13.3530   66.3350   -2.7430 N.pl3 281  ARG281      0.1354
    174  NH2      -14.4910   64.4630   -2.0250 N.pl3 281  ARG281      0.1354
    175  N        -15.9690   56.2000   -1.9800 N.3   322  ASP322     -0.1239
    176  CA       -14.5810   56.6500   -1.9990 C.3   322  ASP322      0.1674
    177  C        -13.8090   56.0130   -0.8520 C.2   322  ASP322      0.2266
    178  O        -12.5790   56.0140   -0.8500 O.2   322  ASP322     -0.2867
    179  CB       -14.5140   58.1750   -1.8270 C.3   322  ASP322      0.1410
    180  CG       -14.8810   58.9360   -3.0850 C.2   322  ASP322      0.3668
    181  OD1      -15.6040   58.3780   -3.9370 O.co2 322  ASP322     -0.2456
    182  OD2      -14.4520   60.1060   -3.2110 O.co2 322  ASP322     -0.2456
    183  N        -14.2520   55.3920   -7.7240 N.3   329  GLU329     -0.1231
    184  CA       -14.6930   56.5970   -7.0380 C.3   329  GLU329      0.1699
    185  C        -15.7130   57.4320   -7.8200 C.2   329  GLU329      0.2592
    186  O        -15.4180   58.5460   -8.2410 O.2   329  GLU329     -0.2718
    187  CB       -13.4790   57.4670   -6.6990 C.3   329  GLU329      0.0402
    188  CG       -12.3390   56.7340   -5.9950 C.3   329  GLU329      0.1161
    189  CD       -11.2100   57.6650   -5.5680 C.2   329  GLU329      0.3649
    190  OE1      -10.6850   58.4050   -6.4310 O.co2 329  GLU329     -0.2457
    191  OE2      -10.8500   57.6500   -4.3690 O.co2 329  GLU329     -0.2457
    192  N        -16.9100   56.8950   -8.0250 N.am  330  LEU330     -0.1980
    193  CA       -17.9640   57.6290   -8.7280 C.3   330  LEU330      0.1596
    194  C        -19.1190   57.8140   -7.7620 C.2   330  LEU330      0.2287
    195  O        -18.9740   57.5380   -6.5770 O.2   330  LEU330     -0.2864
    196  CB       -18.4520   56.8620   -9.9570 C.3   330  LEU330      0.0297
    197  CG       -17.5240   56.8480  -11.1720 C.3   330  LEU330      0.0022
    198  CD1      -18.1850   56.0940  -12.3200 C.3   330  LEU330      0.0001
    199  CD2      -17.2000   58.2860  -11.5760 C.3   330  LEU330      0.0001
    200  N        -18.5940   56.4520  -17.7170 N.3   360  THR360     -0.1203
    201  CA       -18.2180   57.6730  -17.0340 C.3   360  THR360      0.1994
    202  C        -18.1040   58.7820  -18.0420 C.2   360  THR360      0.2618
    203  O        -18.0870   58.5280  -19.2330 O.2   360  THR360     -0.2717
    204  CB       -16.8830   57.5410  -16.3020 C.3   360  THR360      0.1784
    205  OG1      -16.6090   58.7640  -15.6090 O.3   360  THR360     -0.2211
    206  CG2      -15.7720   57.2710  -17.2770 C.3   360  THR360      0.0376
    207  N        -18.0330   60.0170  -17.5770 N.am  361  THR361     -0.1952
    208  CA       -17.9120   61.1110  -18.5140 C.3   361  THR361      0.1897
    209  C        -17.1040   62.2300  -17.9120 C.2   361  THR361      0.2313
    210  O        -17.3860   62.6760  -16.8160 O.2   361  THR361     -0.2863
    211  CB       -19.2780   61.6550  -18.9190 C.3   361  THR361      0.1794
    212  OG1      -20.0450   60.6090  -19.5260 O.3   361  THR361     -0.2208
    213  CG2      -19.1140   62.8020  -19.9020 C.3   361  THR361      0.0378
    214  N        -16.5070   65.7470  -17.8860 N.3   363  PHE363     -0.1241
    215  CA       -17.2060   66.9600  -18.2810 C.3   363  PHE363      0.1605
    216  C        -16.3590   68.1550  -18.6340 C.2   363  PHE363      0.2264
    217  O        -16.6250   69.2620  -18.1970 O.2   363  PHE363     -0.2867
    218  CB       -18.2110   67.3370  -17.2010 C.3   363  PHE363      0.0534
    219  CG       -19.3210   66.3430  -17.0620 C.ar  363  PHE363     -0.0203
    220  CD1      -20.3440   66.2960  -17.9980 C.ar  363  PHE363     -0.0042
    221  CD2      -19.3140   65.4130  -16.0320 C.ar  363  PHE363     -0.0042
    222  CE1      -21.3400   65.3350  -17.9100 C.ar  363  PHE363     -0.0003
    223  CE2      -20.3050   64.4490  -15.9390 C.ar  363  PHE363     -0.0003
    224  CZ       -21.3190   64.4100  -16.8790 C.ar  363  PHE363     -0.0000
@<TRIPOS>BOND
     1   213   211    1
     2   114   112    1
     3   212   211    1
     4   203   202    2
     5   112   109    1
     6   112   113    1
     7   211   208    1
     8   109   110    1
     9   109   108    1
    10   216   215    1
    11   216   217    2
    12   208   209    1
    13   208   207    1
    14   115   113    1
    15   215   214    1
    16   215   218    1
    17   110   111    2
    18   105   104    2
    19   202   207   am
    20   202   201    1
    21   220   222   ar
    22   220   219   ar
    23   209   210    2
    24   222   224   ar
    25   200   201    1
    26   108   104   am
    27   104   103    1
    28   206   204    1
    29   218   219    1
    30   219   221   ar
    31   201   204    1
    32   224   223   ar
    33   132   131    1
    34   116   117    1
    35   107   106    1
    36   117   118    1
    37   117   120    1
    38   103   106    1
    39   103   102    1
    40   204   205    1
    41   118   119    2
    42    42    41    2
    43   221   223   ar
    44   125   124    1
    45   127   128    1
    46    94    93    2
    47    74    75    1
    48    77    76    2
    49    75    76    1
    50    75    78    1
    51   126   124    1
    52   102    93   am
    53    82    80   ar
    54    43    40    1
    55   120   121    1
    56    79    78    1
    57    79    80    1
    58    41    40    1
    59    41    44   am
    60   124   123    2
    61    61    60    1
    62    93    92    1
    63    58    60   ar
    64    58    56   ar
    65   121   122    1
    66    40    39    1
    67   131   128    1
    68    83    84    1
    69    47    46    2
    70    84    85    1
    71    84    87    1
    72    60    59   ar
    73    45    46    1
    74    45    44    1
    75    45    48    1
    76    80    81   ar
    77   128   129    1
    78    56    55   ar
    79    85    86    2
    80    46    50   am
    81    91    92    1
    82   123   122    1
    83    38    37    2
    84    92    95    1
    85    53    52    2
    86    72    71    2
    87    50    51    1
    88    71    70    1
    89    51    52    1
    90    51    54    1
    91    59    57   ar
    92    48    49    1
    93    55    57   ar
    94    55    54    1
    95    39    37   am
    96    87    88    1
    97    88    89    1
    98     4     3    2
    99    52    62   am
   100    37    36    1
   101   129   130    2
   102   129   133   am
   103     7     8    1
   104     7     6    1
   105     8     9    1
   106    73    70    1
   107     6     5    1
   108    95    96    1
   109    65    64    2
   110    70    69    1
   111     3     2    1
   112    90    89    1
   113    96    97    1
   114   198   197    1
   115   133   134    1
   116    64    69   am
   117    64    63    1
   118    62    63    1
   119    36    35    1
   120    35    30   am
   121   199   197    1
   122     5     2    1
   123   139   137    1
   124     2     1    1
   125    63    66    1
   126   197   196    1
   127    97    98    1
   128   134   137    1
   129   134   135    1
   130    98    99    2
   131    28    29    1
   132    30    29    1
   133    30    31    2
   134    29    32    1
   135   137   138    1
   136   136   135    2
   137   196   193    1
   138   135   140   am
   139    66    67    1
   140    66    68    1
   141    99   101    1
   142    99   100    1
   143   151   148    1
   144   150   149    2
   145    33    32    1
   146    32    34    1
   147   146   140    1
   148   146   145    1
   149   140   141    1
   150   193   192    1
   151   193   194    1
   152   145   144    1
   153   149   148    1
   154   149   152   am
   155   148   147    1
   156   186   185    2
   157   192   185   am
   158   141   144    1
   159   141   142    1
   160   185   184    1
   161   194   195    2
   162   183   184    1
   163   152   153    1
   164   158   156    1
   165   153   154    1
   166   153   156    1
   167   184   187    1
   168   142   143    2
   169   187   188    1
   170   160   154   am
   171   160   161    1
   172   154   155    2
   173   156   157    1
   174   190   189   ar
   175   161   162    1
   176   188   189    1
   177   189   191   ar
   178   157   159    1
   179    19    18    1
   180   162   163    2
   181   162   164   am
   182   169   170    1
   183   169   168    1
   184   164   165    1
   185   170   171    1
   186   181   180   ar
   187    18    20    1
   188    18    17    2
   189   171   172    2
   190   182   180   ar
   191   180   179    1
   192   168   165    1
   193    26    25    1
   194    26    27    1
   195   165   166    1
   196   173   172    1
   197   172   174    1
   198    16    17    1
   199    16    15    1
   200   167   166    2
   201    25    22    1
   202    13    12    2
   203   176   175    1
   204   176   179    1
   205   176   177    1
   206    14    15    1
   207    14    11    1
   208    27    21    1
   209    22    21    1
   210    22    23    1
   211    10    11    1
   212    12    11    1
   213   177   178    2
   214    23    24    2
