@<TRIPOS>MOLECULE
tmp/1zdpA00.pdb
 149 143 0 0 0
SMALL
GASTEIGER

@<TRIPOS>ATOM
      1  N         33.0900   36.7320   -0.0050 N.3   112  ASN112     -0.1225
      2  CA        33.3070   37.7550   -0.9590 C.3   112  ASN112      0.1785
      3  C         32.1860   38.8160   -0.8740 C.2   112  ASN112      0.2597
      4  O         31.3010   38.7310    0.0120 O.2   112  ASN112     -0.2718
      5  CB        33.4890   37.2160   -2.3730 C.3   112  ASN112      0.1169
      6  CG        34.5920   37.8640   -3.2310 C.2   112  ASN112      0.2627
      7  OD1       35.0510   39.0060   -3.1040 O.2   112  ASN112     -0.2716
      8  ND2       35.1340   37.0300   -4.1110 N.am  112  ASN112     -0.0877
      9  N         32.3250   39.7680   -1.7690 N.am  113  ALA113     -0.1966
     10  CA        31.4470   40.9310   -1.9590 C.3   113  ALA113      0.1728
     11  C         31.6790   41.3290   -3.3860 C.2   113  ALA113      0.2616
     12  O         32.7920   41.1260   -3.8870 O.2   113  ALA113     -0.2715
     13  CB        31.5310   42.1040   -0.9970 C.3   113  ALA113      0.0334
     14  N         30.6150   41.8370   -4.0340 N.am  114  PHE114     -0.1974
     15  CA        30.7690   42.2770   -5.3990 C.3   114  PHE114      0.1639
     16  C         29.6590   43.2620   -5.8080 C.2   114  PHE114      0.2290
     17  O         28.6310   43.3630   -5.1690 O.2   114  PHE114     -0.2864
     18  CB        30.6420   41.0610   -6.3360 C.3   114  PHE114      0.0560
     19  CG        29.4740   40.0550   -6.1660 C.ar  114  PHE114     -0.0200
     20  CD1       28.3930   40.0740   -7.0570 C.ar  114  PHE114     -0.0042
     21  CD2       29.4180   39.1220   -5.1320 C.ar  114  PHE114     -0.0042
     22  CE1       27.3080   39.2010   -6.9480 C.ar  114  PHE114     -0.0003
     23  CE2       28.3650   38.2090   -5.0080 C.ar  114  PHE114     -0.0003
     24  CZ        27.3090   38.2480   -5.9220 C.ar  114  PHE114     -0.0000
     25  N         36.9120   35.3790    6.9840 N.3   130  PHE130     -0.1241
     26  CA        36.2670   36.6960    7.0000 C.3   130  PHE130      0.1605
     27  C         35.0640   36.7200    7.9070 C.2   130  PHE130      0.2264
     28  O         34.5020   35.6890    8.1540 O.2   130  PHE130     -0.2867
     29  CB        35.6630   36.9430    5.5770 C.3   130  PHE130      0.0534
     30  CG        36.5190   37.5650    4.4860 C.ar  130  PHE130     -0.0203
     31  CD1       36.8760   36.7950    3.3770 C.ar  130  PHE130     -0.0042
     32  CD2       36.9230   38.9060    4.5330 C.ar  130  PHE130     -0.0042
     33  CE1       37.6540   37.3320    2.3510 C.ar  130  PHE130     -0.0003
     34  CE2       37.7150   39.4630    3.5340 C.ar  130  PHE130     -0.0003
     35  CZ        38.0790   38.6530    2.4610 C.ar  130  PHE130     -0.0000
     36  N         31.3210   40.9700    5.2560 N.3   133  LEU133     -0.1245
     37  CA        32.0670   41.9270    4.4510 C.3   133  LEU133      0.1561
     38  C         31.7600   43.4270    4.5150 C.2   133  LEU133      0.2260
     39  O         32.6090   44.3090    4.3160 O.2   133  LEU133     -0.2867
     40  CB        32.4310   41.3920    3.0530 C.3   133  LEU133      0.0270
     41  CG        33.4580   40.2360    3.1600 C.3   133  LEU133      0.0019
     42  CD1       32.7750   38.8970    3.4680 C.3   133  LEU133      0.0001
     43  CD2       34.1780   40.3240    1.8330 C.3   133  LEU133      0.0001
     44  N         35.9620   48.0450    1.8180 N.3   139  VAL139     -0.1245
     45  CA        35.3100   46.9930    1.0080 C.3   139  VAL139      0.1561
     46  C         34.0370   47.5910    0.2920 C.2   139  VAL139      0.2260
     47  O         33.8670   47.4570   -0.9530 O.2   139  VAL139     -0.2867
     48  CB        34.9540   45.7940    1.9270 C.3   139  VAL139      0.0252
     49  CG1       34.0900   44.8000    1.2410 C.3   139  VAL139      0.0019
     50  CG2       36.2650   45.1200    2.2770 C.3   139  VAL139      0.0019
     51  N         35.0000   50.2060   -2.2800 N.3   142  HIS142     -0.1226
     52  CA        35.6610   49.5010   -3.4040 C.3   142  HIS142      0.1752
     53  C         34.5280   49.1030   -4.3530 C.2   142  HIS142      0.2595
     54  O         34.5860   49.2660   -5.6180 O.2   142  HIS142     -0.2718
     55  CB        36.5000   48.3350   -2.7930 C.3   142  HIS142      0.0759
     56  CG        37.0730   47.3930   -3.8250 C.ar  142  HIS142      0.0818
     57  ND1       38.4090   47.3270   -4.1730 N.ar  142  HIS142     -0.2268
     58  CD2       36.4350   46.4920   -4.5270 C.ar  142  HIS142      0.1154
     59  CE1       38.5840   46.4800   -5.1110 C.ar  142  HIS142      0.1986
     60  NE2       37.4110   45.9280   -5.3400 N.ar  142  HIS142     -0.2212
     61  N         33.5030   48.5410   -3.6590 N.am  143  GLU143     -0.1979
     62  CA        32.3390   48.0870   -4.4110 C.3   143  GLU143      0.1602
     63  C         31.5670   49.1240   -5.2530 C.2   143  GLU143      0.2287
     64  O         31.2490   48.9990   -6.4710 O.2   143  GLU143     -0.2864
     65  CB        31.4670   47.1430   -3.5660 C.3   143  GLU143      0.0415
     66  CG        32.1060   45.8020   -3.0220 C.3   143  GLU143      0.1163
     67  CD        32.9060   44.9840   -3.9940 C.2   143  GLU143      0.3649
     68  OE1       32.7780   44.9270   -5.2170 O.co2 143  GLU143     -0.2457
     69  OE2       33.8230   44.3340   -3.4120 O.co2 143  GLU143     -0.2457
     70  N         33.1800   50.3580   -8.2250 N.3   146  HIS146     -0.1241
     71  CA        33.0620   49.5670   -9.4530 C.3   146  HIS146      0.1621
     72  C         31.8870   50.1290  -10.2570 C.2   146  HIS146      0.2264
     73  O         31.9290   50.1440  -11.4840 O.2   146  HIS146     -0.2867
     74  CB        32.7690   48.0840   -9.0550 C.3   146  HIS146      0.0745
     75  CG        34.0680   47.3130   -8.8280 C.ar  146  HIS146      0.0817
     76  ND1       35.1160   47.3050   -9.7370 N.ar  146  HIS146     -0.2268
     77  CD2       34.3880   46.5200   -7.7990 C.ar  146  HIS146      0.1154
     78  CE1       36.0590   46.5300   -9.2710 C.ar  146  HIS146      0.1986
     79  NE2       35.6510   46.0740   -8.0860 N.ar  146  HIS146     -0.2212
     80  N         36.7680   43.8880  -17.5190 N.3   157  TYR157     -0.1241
     81  CA        37.3510   43.1690  -16.4300 C.3   157  TYR157      0.1605
     82  C         38.2870   42.0680  -16.7800 C.2   157  TYR157      0.2264
     83  O         38.0610   40.9590  -16.3980 O.2   157  TYR157     -0.2867
     84  CB        36.2350   42.6500  -15.4940 C.3   157  TYR157      0.0534
     85  CG        36.5810   42.6450  -14.0140 C.ar  157  TYR157     -0.0201
     86  CD1       36.5670   41.4390  -13.3110 C.ar  157  TYR157     -0.0009
     87  CD2       36.8980   43.8130  -13.3080 C.ar  157  TYR157     -0.0009
     88  CE1       36.8360   41.4040  -11.9360 C.ar  157  TYR157      0.0417
     89  CE2       37.1990   43.8100  -11.9400 C.ar  157  TYR157      0.0417
     90  CZ        37.1560   42.5850  -11.2590 C.ar  157  TYR157      0.1957
     91  OH        37.4110   42.5460   -9.9130 O.3   157  TYR157     -0.2866
     92  N         40.3330   47.2540  -10.8200 N.3   166  GLU166     -0.1245
     93  CA        40.5500   46.8730   -9.3890 C.3   166  GLU166      0.1567
     94  C         41.3320   47.9520   -8.5770 C.2   166  GLU166      0.2260
     95  O         40.9540   48.2480   -7.4610 O.2   166  GLU166     -0.2867
     96  CB        41.3470   45.5360   -9.3860 C.3   166  GLU166      0.0388
     97  CG        40.3850   44.3760   -9.5700 C.3   166  GLU166      0.1160
     98  CD        39.3730   44.4410   -8.4510 C.2   166  GLU166      0.3649
     99  OE1       38.1750   44.4010   -8.6210 O.co2 166  GLU166     -0.2457
    100  OE2       39.8920   44.5530   -7.2510 O.co2 166  GLU166     -0.2457
    101  N         44.0490   47.1070    2.5320 N.3   188  ILE188     -0.1231
    102  CA        42.6930   46.7500    2.0690 C.3   188  ILE188      0.1692
    103  C         42.0620   45.5670    2.8100 C.2   188  ILE188      0.2592
    104  O         42.6210   44.4350    2.8400 O.2   188  ILE188     -0.2718
    105  CB        42.6300   46.4620    0.5460 C.3   188  ILE188      0.0266
    106  CG1       43.3080   47.5540   -0.2770 C.3   188  ILE188      0.0019
    107  CG2       41.2170   46.0240    0.0280 C.3   188  ILE188      0.0020
    108  CD1       42.5180   48.8650   -0.1660 C.3   188  ILE188      0.0001
    109  N         40.8280   45.7670    3.3670 N.am  189  GLY189     -0.1957
    110  CA        40.1040   44.6980    4.0100 C.3   189  GLY189      0.1869
    111  C         40.5040   44.3320    5.4450 C.2   189  GLY189      0.2309
    112  O         40.0010   43.3650    6.0080 O.2   189  GLY189     -0.2863
    113  N         44.0340   41.8920    3.3200 N.3   202  LEU202     -0.1231
    114  CA        43.9270   41.1780    2.0630 C.3   202  LEU202      0.1693
    115  C         44.9820   41.5890    1.0170 C.2   202  LEU202      0.2591
    116  O         45.4660   40.7160    0.2830 O.2   202  LEU202     -0.2718
    117  CB        42.4650   41.3350    1.5360 C.3   202  LEU202      0.0284
    118  CG        42.1720   40.5300    0.3160 C.3   202  LEU202      0.0019
    119  CD1       42.2010   39.0610    0.7350 C.3   202  LEU202      0.0001
    120  CD2       40.7280   40.8650   -0.0830 C.3   202  LEU202      0.0001
    121  N         45.2100   42.9040    0.9130 N.am  203  ARG203     -0.1980
    122  CA        46.1350   43.4930   -0.0010 C.3   203  ARG203      0.1597
    123  C         46.7030   44.6800    0.7390 C.2   203  ARG203      0.2287
    124  O         46.0630   45.1520    1.7350 O.2   203  ARG203     -0.2864
    125  CB        45.5030   44.0580   -1.2600 C.3   203  ARG203      0.0334
    126  CG        44.9340   43.0640   -2.2180 C.3   203  ARG203      0.0492
    127  CD        44.4760   43.6920   -3.5440 C.3   203  ARG203      0.2205
    128  NE        43.1620   44.3190   -3.4660 N.pl3 203  ARG203     -0.0865
    129  CZ        41.9750   43.6370   -3.4860 C.cat 203  ARG203      0.5346
    130  NH1       41.8940   42.2710   -3.5680 N.pl3 203  ARG203      0.1354
    131  NH2       40.8450   44.3680   -3.4780 N.pl3 203  ARG203      0.1354
    132  N         42.3510   34.4450  -12.4710 N.3   226  ASP226     -0.1239
    133  CA        41.8820   35.7340  -11.9750 C.3   226  ASP226      0.1674
    134  C         41.7420   36.7390  -13.0580 C.2   226  ASP226      0.2266
    135  O         42.1340   37.8830  -12.9570 O.2   226  ASP226     -0.2867
    136  CB        42.8970   36.2960  -10.9600 C.3   226  ASP226      0.1410
    137  CG        42.3860   37.4900  -10.2230 C.2   226  ASP226      0.3668
    138  OD1       41.2450   37.6580   -9.9080 O.co2 226  ASP226     -0.2456
    139  OD2       43.3290   38.3390   -9.9360 O.co2 226  ASP226     -0.2456
    140  N         43.1380   41.0650   -9.7950 N.3   231  HIS231     -0.1241
    141  CA        43.3850   41.3930   -8.4150 C.3   231  HIS231      0.1621
    142  C         44.8930   41.2150   -8.0420 C.2   231  HIS231      0.2264
    143  O         45.3100   41.4630   -6.9030 O.2   231  HIS231     -0.2867
    144  CB        42.6670   40.5460   -7.3500 C.3   231  HIS231      0.0745
    145  CG        41.2040   40.5720   -7.5150 C.ar  231  HIS231      0.0817
    146  ND1       40.5380   39.6970   -8.3640 N.ar  231  HIS231     -0.2268
    147  CD2       40.3570   41.4150   -6.9360 C.ar  231  HIS231      0.1154
    148  CE1       39.2430   40.0120   -8.2790 C.ar  231  HIS231      0.1986
    149  NE2       39.1270   41.0460   -7.4370 N.ar  231  HIS231     -0.2212
@<TRIPOS>BOND
     1    80    81    1
     2    82    81    1
     3    82    83    2
     4    81    84    1
     5    84    85    1
     6    85    86   ar
     7    85    87   ar
     8    86    88   ar
     9    87    89   ar
    10   134   135    2
    11   134   133    1
    12   132   133    1
    13   133   136    1
    14    89    90   ar
    15    88    90   ar
    16    73    72    2
    17    90    91    1
    18   136   137    1
    19    92    93    1
    20    72    71    1
    21   137   139   ar
    22   137   138   ar
    23   140   141    1
    24    76    78   ar
    25    76    75   ar
    26    97    96    1
    27    97    98    1
    28    71    74    1
    29    71    70    1
    30    93    96    1
    31    93    94    1
    32    78    79   ar
    33    74    75    1
    34    75    77   ar
    35    99    98   ar
    36    94    95    2
    37    98   100   ar
    38   141   142    1
    39   141   144    1
    40   146   148   ar
    41   146   145   ar
    42   148   149   ar
    43    79    77   ar
    44   142   143    2
    45   145   144    1
    46   145   147   ar
    47   149   147   ar
    48    20    22   ar
    49    20    19   ar
    50    22    24   ar
    51    64    63    2
    52    18    19    1
    53    18    15    1
    54    19    21   ar
    55    24    23   ar
    56    16    15    1
    57    16    17    2
    58    54    53    2
    59    15    14    1
    60    60    59   ar
    61    60    58   ar
    62    63    62    1
    63    68    67   ar
    64    21    23   ar
    65    59    57   ar
    66    58    56   ar
    67    62    61    1
    68    62    65    1
    69    53    61   am
    70    53    52    1
    71    57    56   ar
    72     8     6   am
    73    14    11   am
    74    67    69   ar
    75    67    66    1
    76    12    11    2
    77    56    55    1
    78   130   129    1
    79    65    66    1
    80   127   128    1
    81   127   126    1
    82   129   131    1
    83   129   128    2
    84    52    55    1
    85    52    51    1
    86    11    10    1
    87     6     7    2
    88     6     5    1
    89     5     2    1
    90   126   125    1
    91    10     9    1
    92    10    13    1
    93     9     3   am
    94   125   122    1
    95     2     3    1
    96     2     1    1
    97    47    46    2
    98     3     4    2
    99   106   108    1
   100   106   105    1
   101   120   118    1
   102   122   123    1
   103   122   121    1
   104   107   105    1
   105   116   115    2
   106    46    45    1
   107   118   119    1
   108   118   117    1
   109   105   102    1
   110   123   124    2
   111   121   115   am
   112    45    44    1
   113    45    48    1
   114   115   114    1
   115    49    48    1
   116   117   114    1
   117    43    41    1
   118    48    50    1
   119   114   113    1
   120   102   101    1
   121   102   103    1
   122    33    35   ar
   123    33    31   ar
   124    35    34   ar
   125   103   104    2
   126   103   109   am
   127    40    41    1
   128    40    37    1
   129    41    42    1
   130   109   110    1
   131    31    30   ar
   132    34    32   ar
   133   110   111    1
   134    39    38    2
   135    37    38    1
   136    37    36    1
   137    30    32   ar
   138    30    29    1
   139   111   112    2
   140    29    26    1
   141    25    26    1
   142    26    27    1
   143    27    28    2
