@<TRIPOS>MOLECULE
tmp/1zdtB00.pdb
 140 131 0 0 0
SMALL
GASTEIGER

@<TRIPOS>ATOM
      1  N         18.7590  -20.3500   93.9640 N.3    53  PHE53      -0.1227
      2  CA        19.4920  -20.9630   95.0400 C.3    53  PHE53       0.1736
      3  C         20.1010  -19.9150   95.9650 C.2    53  PHE53       0.2595
      4  O         20.0710  -20.0830   97.1730 O.2    53  PHE53      -0.2718
      5  CB        20.5550  -21.9280   94.5130 C.3    53  PHE53       0.0547
      6  CG        21.2540  -22.6520   95.6080 C.ar   53  PHE53      -0.0202
      7  CD1       20.5510  -23.5310   96.4100 C.ar   53  PHE53      -0.0042
      8  CD2       22.5830  -22.3850   95.9010 C.ar   53  PHE53      -0.0042
      9  CE1       21.1710  -24.1560   97.4620 C.ar   53  PHE53      -0.0003
     10  CE2       23.2030  -23.0060   96.9390 C.ar   53  PHE53      -0.0003
     11  CZ        22.5000  -23.9070   97.7240 C.ar   53  PHE53      -0.0000
     12  N         20.6480  -18.8380   95.4170 N.am   54  ILE54      -0.1980
     13  CA        21.0980  -17.7240   96.2420 C.3    54  ILE54       0.1595
     14  C         19.9890  -17.1930   97.1760 C.2    54  ILE54       0.2287
     15  O         20.2310  -16.9010   98.3400 O.2    54  ILE54      -0.2864
     16  CB        21.6730  -16.5970   95.3480 C.3    54  ILE54       0.0276
     17  CG1       23.0680  -16.9960   94.8450 C.3    54  ILE54       0.0022
     18  CG2       21.7190  -15.2910   96.0950 C.3    54  ILE54       0.0022
     19  CD1       23.5300  -16.2550   93.6250 C.3    54  ILE54       0.0001
     20  N         19.4870  -19.6440   99.9740 N.3    57  VAL57      -0.1231
     21  CA        20.5210  -19.4640  100.9840 C.3    57  VAL57       0.1692
     22  C         20.2130  -18.2580  101.8840 C.2    57  VAL57       0.2592
     23  O         20.4140  -18.3350  103.0880 O.2    57  VAL57      -0.2718
     24  CB        21.9270  -19.3130  100.3530 C.3    57  VAL57       0.0266
     25  CG1       22.9690  -18.9300  101.3940 C.3    57  VAL57       0.0020
     26  CG2       22.3360  -20.6000   99.7030 C.3    57  VAL57       0.0020
     27  N         19.7520  -17.1480  101.3060 N.am   58  ASP58      -0.1974
     28  CA        19.3810  -15.9880  102.1100 C.3    58  ASP58       0.1709
     29  C         18.2150  -16.3340  103.0580 C.2    58  ASP58       0.2293
     30  O         18.2110  -15.8980  104.2020 O.2    58  ASP58      -0.2864
     31  CB        19.0580  -14.7530  101.2350 C.3    58  ASP58       0.1436
     32  CG        18.6650  -13.5190  102.0760 C.2    58  ASP58       0.3671
     33  OD1       17.4650  -13.1390  102.1070 O.co2  58  ASP58      -0.2456
     34  OD2       19.4870  -12.8680  102.7630 O.co2  58  ASP58      -0.2456
     35  N         19.7890  -18.5810  106.0550 N.3    61  ARG61      -0.1245
     36  CA        20.6490  -17.8930  107.0090 C.3    61  ARG61       0.1563
     37  C         19.8550  -17.0580  108.0170 C.2    61  ARG61       0.2260
     38  O         20.3450  -16.7850  109.1080 O.2    61  ARG61      -0.2867
     39  CB        21.7420  -17.0630  106.3240 C.3    61  ARG61       0.0307
     40  CG        21.2550  -15.9340  105.4660 C.3    61  ARG61       0.0489
     41  CD        22.0920  -14.6420  105.5540 C.3    61  ARG61       0.2205
     42  NE        21.2450  -13.4920  105.2100 N.pl3  61  ARG61      -0.0865
     43  CZ        20.9900  -12.4460  106.0020 C.cat  61  ARG61       0.5346
     44  NH1       21.5520  -12.3460  107.2010 N.pl3  61  ARG61       0.1354
     45  NH2       20.1780  -11.4720  105.5750 N.pl3  61  ARG61       0.1354
     46  N         19.1040  -22.5260  112.4730 N.3    66  PHE66      -0.1241
     47  CA        20.1370  -22.3560  111.4660 C.3    66  PHE66       0.1605
     48  C         21.0210  -21.1040  111.7120 C.2    66  PHE66       0.2264
     49  O         22.2490  -21.1700  111.5660 O.2    66  PHE66      -0.2867
     50  CB        19.5020  -22.3270  110.0640 C.3    66  PHE66       0.0534
     51  CG        20.4960  -22.5170  108.9510 C.ar   66  PHE66      -0.0203
     52  CD1       20.7190  -23.7720  108.4130 C.ar   66  PHE66      -0.0042
     53  CD2       21.2370  -21.4300  108.4710 C.ar   66  PHE66      -0.0042
     54  CE1       21.6330  -23.9410  107.4120 C.ar   66  PHE66      -0.0003
     55  CE2       22.1610  -21.5870  107.4760 C.ar   66  PHE66      -0.0003
     56  CZ        22.3630  -22.8330  106.9350 C.ar   66  PHE66      -0.0000
     57  N         29.1150  -21.2190  110.8660 N.3    71  VAL71      -0.1231
     58  CA        29.1160  -21.3210  109.4120 C.3    71  VAL71       0.1692
     59  C         29.4370  -22.7500  108.9680 C.2    71  VAL71       0.2591
     60  O         28.8920  -23.2090  107.9800 O.2    71  VAL71      -0.2718
     61  CB        30.0790  -20.2590  108.7400 C.3    71  VAL71       0.0266
     62  CG1       30.3210  -20.5530  107.2440 C.3    71  VAL71       0.0020
     63  CG2       29.5200  -18.8400  108.9030 C.3    71  VAL71       0.0020
     64  N         30.2960  -23.4660  109.6920 N.am   72  ALA72      -0.1980
     65  CA        30.6430  -24.8280  109.2780 C.3    72  ALA72       0.1597
     66  C         29.3960  -25.7350  109.1780 C.2    72  ALA72       0.2287
     67  O         29.2010  -26.4160  108.1780 O.2    72  ALA72      -0.2864
     68  CB        31.6960  -25.4340  110.2070 C.3    72  ALA72       0.0319
     69  N         26.2340  -24.7880  109.0250 N.3    74  GLN74      -0.1231
     70  CA        25.3700  -24.1860  108.0230 C.3    74  GLN74       0.1698
     71  C         25.7240  -24.6720  106.6180 C.2    74  GLN74       0.2592
     72  O         24.8410  -24.9550  105.8210 O.2    74  GLN74      -0.2718
     73  CB        25.5080  -22.6760  108.0920 C.3    74  GLN74       0.0381
     74  CG        24.7880  -22.0530  109.2570 C.3    74  GLN74       0.0905
     75  CD        24.7650  -20.5530  109.1660 C.2    74  GLN74       0.2608
     76  OE1       25.5620  -19.9960  108.2600 O.2    74  GLN74      -0.2717
     77  NE2       24.0760  -19.8990  109.9390 N.am   74  GLN74      -0.0878
     78  N         27.0150  -24.7910  106.3260 N.am   75  MET75      -0.1979
     79  CA        27.4620  -25.2380  105.0100 C.3    75  MET75       0.1605
     80  C         27.1620  -26.7180  104.7790 C.2    75  MET75       0.2287
     81  O         26.7970  -27.1190  103.6950 O.2    75  MET75      -0.2864
     82  CB        28.9550  -24.9630  104.8460 C.3    75  MET75       0.0413
     83  CG        29.2940  -23.4800  104.8240 C.3    75  MET75       0.0598
     84  SD        31.0750  -23.1260  104.7290 S.3    75  MET75      -0.1393
     85  CE        31.2810  -23.3220  103.0060 C.3    75  MET75       0.0692
     86  N         23.2990  -27.2590  104.0670 N.3    78  LEU78      -0.1231
     87  CA        23.0920  -26.7800  102.7130 C.3    78  LEU78       0.1693
     88  C         23.7920  -27.6270  101.6590 C.2    78  LEU78       0.2591
     89  O         23.2770  -27.7730  100.5840 O.2    78  LEU78      -0.2718
     90  CB        23.5260  -25.3180  102.5870 C.3    78  LEU78       0.0284
     91  CG        22.6150  -24.2750  103.2430 C.3    78  LEU78       0.0019
     92  CD1       23.3170  -22.9500  103.3310 C.3    78  LEU78       0.0001
     93  CD2       21.2790  -24.1240  102.5200 C.3    78  LEU78       0.0001
     94  N         24.9510  -28.2000  101.9640 N.am   79  GLN79      -0.1979
     95  CA        25.6280  -29.0790  101.0020 C.3    79  GLN79       0.1601
     96  C         24.8190  -30.3620  100.8040 C.2    79  GLN79       0.2287
     97  O         24.8290  -30.9400   99.7300 O.2    79  GLN79      -0.2864
     98  CB        27.0590  -29.4020  101.4460 C.3    79  GLN79       0.0394
     99  CG        28.1260  -28.4700  100.8720 C.3    79  GLN79       0.0908
    100  CD        29.4540  -28.5160  101.6320 C.2    79  GLN79       0.2608
    101  OE1       30.3210  -27.6650  101.4180 O.2    79  GLN79      -0.2717
    102  NE2       29.6180  -29.5090  102.5150 N.am   79  GLN79      -0.0878
    103  N         30.9250  -19.9730   85.6510 N.3   229  ASN229     -0.1240
    104  CA        30.6430  -19.4300   86.9960 C.3   229  ASN229      0.1653
    105  C         29.5140  -20.1230   87.7740 C.2   229  ASN229      0.2266
    106  O         29.0400  -19.6210   88.8110 O.2   229  ASN229     -0.2867
    107  CB        30.3870  -17.9200   86.9110 C.3   229  ASN229      0.1155
    108  CG        31.6340  -17.1180   87.2230 C.2   229  ASN229      0.2627
    109  OD1       32.5190  -16.9530   86.3690 O.2   229  ASN229     -0.2716
    110  ND2       31.7390  -16.6530   88.4670 N.am  229  ASN229     -0.0877
    111  N         27.1870  -21.9620   90.1160 N.3   231  LEU231     -0.1245
    112  CA        27.2640  -22.4200   91.5060 C.3   231  LEU231      0.1561
    113  C         26.5780  -23.7240   91.8050 C.2   231  LEU231      0.2260
    114  O         26.9180  -24.3580   92.8010 O.2   231  LEU231     -0.2867
    115  CB        26.8370  -21.3670   92.5350 C.3   231  LEU231      0.0270
    116  CG        25.4570  -20.7370   92.5640 C.3   231  LEU231      0.0019
    117  CD1       24.9630  -20.5810   93.9970 C.3   231  LEU231      0.0001
    118  CD2       25.5420  -19.3730   91.9050 C.3   231  LEU231      0.0001
    119  N         29.4050  -25.9240   91.5900 N.3   234  GLU234     -0.1231
    120  CA        30.1930  -25.8360   92.8280 C.3   234  GLU234      0.1699
    121  C         29.5680  -26.7050   93.8940 C.2   234  GLU234      0.2592
    122  O         30.2610  -27.4340   94.5800 O.2   234  GLU234     -0.2718
    123  CB        30.2560  -24.4110   93.3850 C.3   234  GLU234      0.0402
    124  CG        31.0150  -23.4160   92.5290 C.3   234  GLU234      0.1161
    125  CD        32.4980  -23.4550   92.7710 C.2   234  GLU234      0.3649
    126  OE1       32.9150  -23.4790   93.9610 O.co2 234  GLU234     -0.2457
    127  OE2       33.2480  -23.4590   91.7640 O.co2 234  GLU234     -0.2457
    128  N         28.2540  -26.5880   94.0520 N.am  235  MET235     -0.1979
    129  CA        27.5250  -27.4130   94.9990 C.3   235  MET235      0.1605
    130  C         27.6700  -28.8830   94.6410 C.2   235  MET235      0.2287
    131  O         27.9100  -29.6930   95.5180 O.2   235  MET235     -0.2864
    132  CB        26.0390  -27.0290   95.0640 C.3   235  MET235      0.0413
    133  CG        25.7660  -25.6130   95.6030 C.3   235  MET235      0.0598
    134  SD        26.5970  -25.1870   97.1430 S.3   235  MET235     -0.1393
    135  CE        25.7320  -26.2660   98.3350 C.3   235  MET235      0.0692
    136  N         31.2070  -30.7070   95.4850 N.3   238  ALA238     -0.1245
    137  CA        31.6830  -30.7820   96.8520 C.3   238  ALA238      0.1562
    138  C         31.4280  -32.2210   97.3120 C.2   238  ALA238      0.2260
    139  O         30.7650  -32.9890   96.5990 O.2   238  ALA238     -0.2867
    140  CB        30.9310  -29.7740   97.7230 C.3   238  ALA238      0.0290
@<TRIPOS>BOND
     1   103   104    1
     2   109   108    2
     3   107   104    1
     4   107   108    1
     5   104   105    1
     6   108   110   am
     7   105   106    2
     8   111   112    1
     9   112   113    1
    10   112   115    1
    11   119   120    1
    12   127   125   ar
    13   113   114    2
    14   118   116    1
    15   124   125    1
    16   124   123    1
    17   115   116    1
    18   116   117    1
    19   125   126   ar
    20   120   123    1
    21   120   121    1
    22    19    17    1
    23   121   128   am
    24   121   122    2
    25     1     2    1
    26   128   129    1
    27     5     2    1
    28     5     6    1
    29   130   129    1
    30   130   131    2
    31    17    16    1
    32   129   132    1
    33     2     3    1
    34   132   133    1
    35    16    18    1
    36    16    13    1
    37    12     3   am
    38    12    13    1
    39   136   137    1
    40   133   134    1
    41     6     8   ar
    42     6     7   ar
    43     8    10   ar
    44     3     4    2
    45    13    14    1
    46     7     9   ar
    47   139   138    2
    48   137   138    1
    49   137   140    1
    50    10    11   ar
    51   134   135    1
    52    14    15    2
    53     9    11   ar
    54    26    24    1
    55    97    96    2
    56    20    21    1
    57    24    21    1
    58    24    25    1
    59    89    88    2
    60    96    95    1
    61    99    98    1
    62    99   100    1
    63    21    22    1
    64    95    98    1
    65    95    94    1
    66    31    32    1
    67    31    28    1
    68    27    22   am
    69    27    28    1
    70   101   100    2
    71   100   102   am
    72    88    94   am
    73    88    87    1
    74    22    23    2
    75    32    33   ar
    76    32    34   ar
    77    28    29    1
    78    93    91    1
    79    90    87    1
    80    90    91    1
    81    87    86    1
    82    85    84    1
    83    29    30    2
    84    91    92    1
    85    81    80    2
    86    84    83    1
    87    80    79    1
    88    83    82    1
    89    82    79    1
    90    79    78    1
    91    42    41    1
    92    42    43    2
    93    40    41    1
    94    40    39    1
    95    45    43    1
    96    72    71    2
    97    43    44    1
    98    35    36    1
    99    39    36    1
   100    78    71   am
   101    71    70    1
   102    56    54   ar
   103    56    55   ar
   104    36    37    1
   105    62    61    1
   106    54    52   ar
   107    55    53   ar
   108    60    59    2
   109    37    38    2
   110    70    73    1
   111    70    69    1
   112    73    74    1
   113    67    66    2
   114    76    75    2
   115    52    51   ar
   116    53    51   ar
   117    61    63    1
   118    61    58    1
   119    51    50    1
   120    59    58    1
   121    59    64   am
   122    75    74    1
   123    75    77   am
   124    66    65    1
   125    65    64    1
   126    65    68    1
   127    58    57    1
   128    50    47    1
   129    47    48    1
   130    47    46    1
   131    49    48    2
