@<TRIPOS>MOLECULE
tmp/1zduA03.pdb
 113 106 0 0 0
SMALL
GASTEIGER

@<TRIPOS>ATOM
      1  N         12.9200   38.8150    2.7620 N.3    14  GLU14      -0.1231
      2  CA        12.0570   37.7920    2.1690 C.3    14  GLU14       0.1684
      3  C         12.6020   37.2770    0.8400 C.2    14  GLU14       0.2434
      4  O         12.7440   38.0510   -0.0950 O.2    14  GLU14      -0.2733
      5  CB        10.6600   38.3720    1.9310 C.3    14  GLU14       0.0402
      6  CG         9.8870   38.6430    3.2080 C.3    14  GLU14       0.1161
      7  CD         9.5310   37.3660    3.9220 C.2    14  GLU14       0.3649
      8  OE1       10.0970   37.0910    5.0090 O.co2  14  GLU14      -0.2457
      9  OE2        8.7030   36.6260    3.3620 O.co2  14  GLU14      -0.2457
     10  N         12.8810   35.9810    0.7320 N.am   15  PRO15      -0.2729
     11  CA        13.4790   35.4320   -0.4940 C.3    15  PRO15       0.1401
     12  C         12.5080   35.3790   -1.6710 C.2    15  PRO15       0.2269
     13  O         11.3030   35.5050   -1.4600 O.2    15  PRO15      -0.2865
     14  CB        13.9010   34.0190   -0.0800 C.3    15  PRO15       0.0296
     15  CG        12.9690   33.6500    1.0160 C.3    15  PRO15       0.0237
     16  CD        12.6420   34.9340    1.7410 C.3    15  PRO15       0.0939
     17  N         10.1830   33.7840   -3.7170 N.3    17  GLU17      -0.1245
     18  CA         9.3420   32.5850   -3.6270 C.3    17  GLU17       0.1567
     19  C          9.4640   31.6640   -4.8510 C.2    17  GLU17       0.2260
     20  O          9.6050   30.4530   -4.6800 O.2    17  GLU17      -0.2867
     21  CB         7.8690   32.9620   -3.4300 C.3    17  GLU17       0.0388
     22  CG         7.3750   32.8950   -1.9950 C.3    17  GLU17       0.1160
     23  CD         5.8610   33.0780   -1.8910 C.2    17  GLU17       0.3649
     24  OE1        5.1890   33.0800   -2.9530 O.co2  17  GLU17      -0.2457
     25  OE2        5.3420   33.2160   -0.7420 O.co2  17  GLU17      -0.2457
     26  N         12.7010   29.3980   -4.7330 N.3    20  VAL20      -0.1245
     27  CA        12.5830   28.3700   -3.6980 C.3    20  VAL20       0.1561
     28  C         11.6520   27.2450   -4.1840 C.2    20  VAL20       0.2260
     29  O         11.9120   26.0600   -3.9690 O.2    20  VAL20      -0.2867
     30  CB        12.0250   28.9640   -2.3760 C.3    20  VAL20       0.0252
     31  CG1       11.7550   27.8550   -1.3420 C.3    20  VAL20       0.0019
     32  CG2       12.9750   30.0310   -1.8080 C.3    20  VAL20       0.0019
     33  N         12.1860   22.9280    2.7180 N.3    47  THR47      -0.1218
     34  CA        11.5920   24.1920    3.1300 C.3    47  THR47       0.1862
     35  C         12.3270   24.7470    4.3520 C.2    47  THR47       0.2287
     36  O         12.4480   25.9520    4.5250 O.2    47  THR47      -0.2866
     37  CB        10.1170   23.9960    3.4720 C.3    47  THR47       0.1770
     38  OG1        9.4370   23.3720    2.3750 O.3    47  THR47      -0.2211
     39  CG2        9.4170   25.3330    3.6290 C.3    47  THR47       0.0375
     40  N         15.4030   26.4360    3.4160 N.3    50  SER50      -0.1202
     41  CA        15.0080   27.7550    2.9430 C.3    50  SER50       0.2020
     42  C         14.7540   28.7310    4.1070 C.2    50  SER50       0.2618
     43  O         15.0440   29.9270    3.9990 O.2    50  SER50      -0.2717
     44  CB        13.7710   27.6240    2.0420 C.3    50  SER50       0.2103
     45  OG        13.0970   28.8540    1.8930 O.3    50  SER50      -0.2182
     46  N         14.2300   28.2190    5.2190 N.am   51  ILE51      -0.1979
     47  CA        13.9660   29.0380    6.3990 C.3    51  ILE51       0.1595
     48  C         15.2720   29.4530    7.0810 C.2    51  ILE51       0.2287
     49  O         15.4160   30.6120    7.4800 O.2    51  ILE51      -0.2864
     50  CB        13.0170   28.3020    7.3840 C.3    51  ILE51       0.0276
     51  CG1       11.6230   28.2080    6.7580 C.3    51  ILE51       0.0022
     52  CG2       12.9470   29.0210    8.7270 C.3    51  ILE51       0.0022
     53  CD1       10.5110   27.8320    7.6920 C.3    51  ILE51       0.0001
     54  N         16.9970   32.2230    5.1350 N.3    54  TRP54      -0.1241
     55  CA        16.3690   33.5240    5.3450 C.3    54  TRP54       0.1605
     56  C         16.8040   34.1360    6.6710 C.2    54  TRP54       0.2264
     57  O         17.0850   35.3260    6.7370 O.2    54  TRP54      -0.2867
     58  CB        14.8410   33.3940    5.3110 C.3    54  TRP54       0.0550
     59  CG        14.1440   34.4490    6.0970 C.ar   54  TRP54       0.0003
     60  CD1       13.8460   35.7020    5.6790 C.ar   54  TRP54       0.0946
     61  CD2       13.6740   34.3550    7.4500 C.ar   54  TRP54       0.0152
     62  NE1       13.2150   36.4020    6.6790 N.ar   54  TRP54      -0.2442
     63  CE2       13.0940   35.5940    7.7790 C.ar   54  TRP54       0.0810
     64  CE3       13.6920   33.3510    8.4240 C.ar   54  TRP54       0.0012
     65  CZ2       12.5320   35.8530    9.0330 C.ar   54  TRP54       0.0191
     66  CZ3       13.1290   33.6100    9.6710 C.ar   54  TRP54       0.0001
     67  CH2       12.5590   34.8490    9.9610 C.ar   54  TRP54       0.0015
     68  N          4.8430   29.8170    7.8860 N.3    84  ASP84      -0.1239
     69  CA         5.1190   29.7890    6.4610 C.3    84  ASP84       0.1674
     70  C          3.9730   29.1090    5.6950 C.2    84  ASP84       0.2266
     71  O          3.5040   29.6220    4.6900 O.2    84  ASP84      -0.2867
     72  CB         6.4430   29.0580    6.2510 C.3    84  ASP84       0.1410
     73  CG         6.8940   29.0390    4.8120 C.2    84  ASP84       0.3668
     74  OD1        6.9490   27.9280    4.2370 O.co2  84  ASP84      -0.2456
     75  OD2        7.2540   30.0670    4.1880 O.co2  84  ASP84      -0.2456
     76  N          0.9480   30.9540    3.3590 N.3    88  ARG88      -0.1245
     77  CA         0.7840   30.4630    1.9880 C.3    88  ARG88       0.1563
     78  C         -0.6850   30.1610    1.6810 C.2    88  ARG88       0.2260
     79  O         -1.1300   30.3460    0.5520 O.2    88  ARG88      -0.2867
     80  CB         1.6340   29.2070    1.7450 C.3    88  ARG88       0.0307
     81  CG         2.5400   29.2940    0.5050 C.3    88  ARG88       0.0489
     82  CD         3.1200   27.9560    0.0350 C.3    88  ARG88       0.2205
     83  NE         3.5510   27.1290    1.1570 N.pl3  88  ARG88      -0.0865
     84  CZ         4.6730   27.3000    1.8520 C.cat  88  ARG88       0.5346
     85  NH1        5.5300   28.2700    1.5460 N.pl3  88  ARG88       0.1354
     86  NH2        4.9370   26.4830    2.8620 N.pl3  88  ARG88       0.1354
     87  N          4.3260   24.3940   -1.0450 N.3   101  VAL101     -0.1245
     88  CA         5.5130   25.2270   -1.2340 C.3   101  VAL101      0.1561
     89  C          6.0790   25.1170   -2.6580 C.2   101  VAL101      0.2260
     90  O          6.7550   26.0280   -3.1350 O.2   101  VAL101     -0.2867
     91  CB         6.6120   24.8980   -0.1700 C.3   101  VAL101      0.0252
     92  CG1        7.2570   23.5390   -0.4270 C.3   101  VAL101      0.0019
     93  CG2        7.6580   25.9950   -0.1080 C.3   101  VAL101      0.0019
     94  N          2.8470   39.5990    8.6010 N.3   143  PHE143     -0.1241
     95  CA         3.4400   38.2600    8.5660 C.3   143  PHE143      0.1605
     96  C          4.9330   38.2610    8.9400 C.2   143  PHE143      0.2264
     97  O          5.3690   37.4730    9.7780 O.2   143  PHE143     -0.2867
     98  CB         3.2260   37.6440    7.1770 C.3   143  PHE143      0.0534
     99  CG         4.1690   36.5200    6.8480 C.ar  143  PHE143     -0.0203
    100  CD1        3.9930   35.2650    7.4140 C.ar  143  PHE143     -0.0042
    101  CD2        5.2200   36.7160    5.9580 C.ar  143  PHE143     -0.0042
    102  CE1        4.8560   34.2140    7.1010 C.ar  143  PHE143     -0.0003
    103  CE2        6.0880   35.6760    5.6390 C.ar  143  PHE143     -0.0003
    104  CZ         5.9080   34.4210    6.2120 C.ar  143  PHE143     -0.0000
    105  N          6.9150   36.5660   12.1660 N.3   147  LYS147     -0.1245
    106  CA         8.0830   35.7050   11.9730 C.3   147  LYS147      0.1561
    107  C          9.2340   36.0840   12.9040 C.2   147  LYS147      0.2260
    108  O          9.8690   35.2070   13.4980 O.2   147  LYS147     -0.2867
    109  CB         8.5750   35.7790   10.5310 C.3   147  LYS147      0.0271
    110  CG         7.9040   34.8060    9.5680 C.3   147  LYS147      0.0035
    111  CD         8.8750   34.3400    8.4780 C.3   147  LYS147      0.0206
    112  CE         9.0800   35.3790    7.4080 C.3   147  LYS147      0.1093
    113  NZ         9.4760   34.7480    6.1050 N.3   147  LYS147     -0.1314
@<TRIPOS>BOND
     1    19    20    2
     2    19    18    1
     3    26    27    1
     4    28    29    2
     5    28    27    1
     6    17    18    1
     7    27    30    1
     8    18    21    1
     9    21    22    1
    10    90    89    2
    11    24    23   ar
    12    89    88    1
    13    30    32    1
    14    30    31    1
    15    22    23    1
    16    23    25   ar
    17    12    13    2
    18    12    11    1
    19    88    87    1
    20    88    91    1
    21    11    14    1
    22    11    10    1
    23    92    91    1
    24    91    93    1
    25     4     3    2
    26    14    15    1
    27    82    81    1
    28    82    83    1
    29    81    80    1
    30    79    78    2
    31    10     3   am
    32    10    16    1
    33     3     2    1
    34    15    16    1
    35    83    84    2
    36    85    84    1
    37    78    77    1
    38    80    77    1
    39    84    86    1
    40    45    44    1
    41     5     2    1
    42     5     6    1
    43    77    76    1
    44    44    41    1
    45     2     1    1
    46    38    37    1
    47    33    34    1
    48    41    40    1
    49    41    42    1
    50    34    37    1
    51    34    35    1
    52     6     7    1
    53     9     7   ar
    54    37    39    1
    55     7     8   ar
    56    43    42    2
    57    42    46   am
    58    75    73   ar
    59    74    73   ar
    60    35    36    2
    61    71    70    2
    62    73    72    1
    63    54    55    1
    64    46    47    1
    65    58    55    1
    66    58    59    1
    67    55    56    1
    68   103   101   ar
    69   103   104   ar
    70    60    59   ar
    71    60    62   ar
    72    70    69    1
    73   101    99   ar
    74    59    61   ar
    75   113   112    1
    76   104   102   ar
    77    72    69    1
    78    47    48    1
    79    47    50    1
    80    69    68    1
    81    56    57    2
    82    62    63   ar
    83    51    50    1
    84    51    53    1
    85    99    98    1
    86    99   100   ar
    87    48    49    2
    88   102   100   ar
    89    98    95    1
    90    50    52    1
    91   112   111    1
    92    61    63   ar
    93    61    64   ar
    94    63    65   ar
    95    64    66   ar
    96   111   110    1
    97    95    94    1
    98    95    96    1
    99    96    97    2
   100    65    67   ar
   101   110   109    1
   102    66    67   ar
   103   109   106    1
   104   106   105    1
   105   106   107    1
   106   107   108    2
