@<TRIPOS>MOLECULE
tmp/1zduA01.pdb
 131 121 0 0 0
SMALL
GASTEIGER

@<TRIPOS>ATOM
      1  N         10.9990   21.6090   -6.1470 N.3    25  MET25      -0.1245
      2  CA        10.3650   20.7350   -7.1360 C.3    25  MET25       0.1570
      3  C         11.4050   19.9250   -7.9050 C.2    25  MET25       0.2261
      4  O         11.2410   18.7230   -8.1000 O.2    25  MET25      -0.2867
      5  CB         9.5160   21.5550   -8.1170 C.3    25  MET25       0.0387
      6  CG         8.4750   20.7450   -8.8810 C.3    25  MET25       0.0595
      7  SD         7.2240   20.0130   -7.8050 S.3    25  MET25      -0.1393
      8  CE         7.0550   18.3890   -8.5230 C.3    25  MET25       0.0692
      9  N         12.9430   17.1840   -5.7830 N.3    28  LEU28      -0.1231
     10  CA        12.0310   16.0620   -5.5430 C.3    28  LEU28       0.1693
     11  C         11.9400   15.1520   -6.7520 C.2    28  LEU28       0.2591
     12  O         11.7550   13.9430   -6.6130 O.2    28  LEU28      -0.2718
     13  CB        10.6330   16.5630   -5.1750 C.3    28  LEU28       0.0284
     14  CG        10.4900   17.1230   -3.7600 C.3    28  LEU28       0.0019
     15  CD1        9.2460   17.9810   -3.6600 C.3    28  LEU28       0.0001
     16  CD2       10.4660   16.0070   -2.7240 C.3    28  LEU28       0.0001
     17  N         12.0680   15.7380   -7.9360 N.am   29  GLN29      -0.1979
     18  CA        12.0940   14.9740   -9.1780 C.3    29  GLN29       0.1601
     19  C         13.3620   14.1250   -9.2780 C.2    29  GLN29       0.2287
     20  O         13.3420   13.0440   -9.8630 O.2    29  GLN29      -0.2864
     21  CB        11.9730   15.9130  -10.3820 C.3    29  GLN29       0.0394
     22  CG        10.5630   16.4720  -10.5740 C.3    29  GLN29       0.0908
     23  CD        10.4410   17.3740  -11.7870 C.2    29  GLN29       0.2608
     24  OE1       10.4700   18.5980  -11.6590 O.2    29  GLN29      -0.2717
     25  NE2       10.3010   16.7750  -12.9620 N.am   29  GLN29      -0.0878
     26  N         13.4940   10.9710   -7.2790 N.3    32  GLN32      -0.1245
     27  CA        12.6950    9.9850   -8.0000 C.3    32  GLN32       0.1566
     28  C         11.4010    9.6540   -7.2550 C.2    32  GLN32       0.2260
     29  O         10.3460    9.4740   -7.8770 O.2    32  GLN32      -0.2867
     30  CB        13.5120    8.7190   -8.3010 C.3    32  GLN32       0.0367
     31  CG        14.4210    8.8640   -9.5200 C.3    32  GLN32       0.0905
     32  CD        15.6720    8.0060   -9.4370 C.2    32  GLN32       0.2608
     33  OE1       15.6520    6.8280   -9.7950 O.2    32  GLN32      -0.2717
     34  NE2       16.7600    8.5950   -8.9630 N.am   32  GLN32      -0.0878
     35  N         11.5050    3.2010   -4.0370 N.3    33  LYS33      -0.1231
     36  CA        10.4070    3.6530   -4.8860 C.3    33  LYS33       0.1693
     37  C          9.4150    4.5060   -4.0650 C.2    33  LYS33       0.2591
     38  O          8.3180    4.0650   -3.7160 O.2    33  LYS33      -0.2718
     39  CB         9.7550    2.4430   -5.5590 C.3    33  LYS33       0.0285
     40  CG        10.8010    1.4620   -6.1430 C.3    33  LYS33       0.0035
     41  CD        10.2190    0.4650   -7.1550 C.3    33  LYS33       0.0206
     42  CE        10.9840    0.5050   -8.4780 C.3    33  LYS33       0.1093
     43  NZ        10.5050   -0.5090   -9.4490 N.3    33  LYS33      -0.1314
     44  N          9.8420    5.7470   -3.8090 N.am   34  LEU34      -0.1980
     45  CA         9.2600    6.6880   -2.8310 C.3    34  LEU34       0.1596
     46  C          7.7570    6.6370   -2.5370 C.2    34  LEU34       0.2287
     47  O          6.9390    6.4480   -3.4380 O.2    34  LEU34      -0.2864
     48  CB         9.6050    8.1380   -3.2300 C.3    34  LEU34       0.0297
     49  CG        10.4540    8.9630   -2.2530 C.3    34  LEU34       0.0022
     50  CD1       10.4700   10.4270   -2.6740 C.3    34  LEU34       0.0001
     51  CD2        9.9730    8.8470   -0.8180 C.3    34  LEU34       0.0001
     52  N          4.2450    8.4840   -0.5010 N.3    36  THR36      -0.1218
     53  CA         3.6160    9.8030   -0.4320 C.3    36  THR36       0.1862
     54  C          4.0920   10.6310    0.7630 C.2    36  THR36       0.2287
     55  O          4.4610   11.7980    0.6250 O.2    36  THR36      -0.2866
     56  CB         2.0900    9.6430   -0.3340 C.3    36  THR36       0.1770
     57  OG1        1.6190    8.7640   -1.3630 O.3    36  THR36      -0.2211
     58  CG2        1.3810   10.9510   -0.6170 C.3    36  THR36       0.0375
     59  N          7.7710   11.6090    0.5720 N.3    39  LEU39      -0.1231
     60  CA         7.9620   12.7100   -0.3700 C.3    39  LEU39       0.1693
     61  C          7.6950   14.0660    0.2900 C.2    39  LEU39       0.2591
     62  O          8.3920   15.0410    0.0250 O.2    39  LEU39      -0.2718
     63  CB         7.0330   12.5190   -1.5800 C.3    39  LEU39       0.0284
     64  CG         7.1920   13.4840   -2.7680 C.3    39  LEU39       0.0019
     65  CD1        7.9980   12.8580   -3.9090 C.3    39  LEU39       0.0001
     66  CD2        5.8310   13.9520   -3.2730 C.3    39  LEU39       0.0001
     67  N          6.6860   14.1110    1.1550 N.am   40  MET40      -0.1979
     68  CA         6.2920   15.3350    1.8450 C.3    40  MET40       0.1605
     69  C          7.2540   15.6960    2.9600 C.2    40  MET40       0.2287
     70  O          7.3670   16.8590    3.3240 O.2    40  MET40      -0.2864
     71  CB         4.8960   15.1720    2.4470 C.3    40  MET40       0.0413
     72  CG         3.7890   14.9870    1.4340 C.3    40  MET40       0.0598
     73  SD         3.2960   16.5560    0.7590 S.3    40  MET40      -0.1393
     74  CE         4.2420   16.5860   -0.7210 C.3    40  MET40       0.0692
     75  N          9.9500   17.4670    1.1990 N.3    43  MET43      -0.1245
     76  CA         9.4790   18.8050    0.8330 C.3    43  MET43       0.1570
     77  C          9.4990   19.7600    2.0320 C.2    43  MET43       0.2261
     78  O          9.7660   20.9470    1.8820 O.2    43  MET43      -0.2867
     79  CB         8.0550   18.7150    0.2690 C.3    43  MET43       0.0387
     80  CG         7.4260   20.0580   -0.0920 C.3    43  MET43       0.0595
     81  SD         5.7480   19.9230   -0.7240 S.3    43  MET43      -0.1393
     82  CE         5.9670   18.9220   -2.1990 C.3    43  MET43       0.0692
     83  N          0.7330   24.1370   -1.8020 N.3   100  LEU100     -0.1245
     84  CA         2.0420   23.6410   -1.3790 C.3   100  LEU100      0.1561
     85  C          3.1700   24.6350   -1.6620 C.2   100  LEU100      0.2260
     86  O          2.9970   25.5860   -2.4200 O.2   100  LEU100     -0.2867
     87  CB         2.3520   22.3050   -2.0650 C.3   100  LEU100      0.0270
     88  CG         1.5000   21.1030   -1.6410 C.3   100  LEU100      0.0019
     89  CD1        1.9160   19.8760   -2.4180 C.3   100  LEU100      0.0001
     90  CD2        1.6060   20.8370   -0.1410 C.3   100  LEU100      0.0001
     91  N          1.7770   23.9270   -6.3700 N.3   104  GLN104     -0.1231
     92  CA         0.5470   23.2580   -6.7900 C.3   104  GLN104      0.1698
     93  C         -0.5350   23.3480   -5.7190 C.2   104  GLN104      0.2592
     94  O         -0.2680   23.7240   -4.5800 O.2   104  GLN104     -0.2718
     95  CB         0.8120   21.7900   -7.1030 C.3   104  GLN104      0.0381
     96  CG         1.9090   21.5600   -8.1230 C.3   104  GLN104      0.0905
     97  CD         3.3000   21.5980   -7.5190 C.2   104  GLN104      0.2608
     98  OE1        3.5120   21.1110   -6.4100 O.2   104  GLN104     -0.2717
     99  NE2        4.2470   22.1840   -8.2420 N.am  104  GLN104     -0.0878
    100  N         -1.7590   22.9910   -6.1000 N.am  105  GLN105     -0.1966
    101  CA        -2.8860   22.9820   -5.1790 C.3   105  GLN105      0.1733
    102  C         -3.4780   21.5920   -5.0980 C.2   105  GLN105      0.2616
    103  O         -4.2460   21.1940   -5.9660 O.2   105  GLN105     -0.2715
    104  CB        -3.9510   23.9810   -5.6280 C.3   105  GLN105      0.0408
    105  CG        -3.5740   25.4150   -5.3280 C.3   105  GLN105      0.0908
    106  CD        -4.7650   26.3240   -5.1310 C.2   105  GLN105      0.2608
    107  OE1       -4.6780   27.2110   -4.1380 O.2   105  GLN105     -0.2717
    108  NE2       -5.7530   26.2360   -5.8720 N.am  105  GLN105     -0.0878
    109  N         -3.1110   20.8500   -4.0590 N.am  106  VAL106     -0.1963
    110  CA        -3.7410   19.5600   -3.7870 C.3   106  VAL106      0.1727
    111  C         -5.1150   19.8150   -3.1670 C.2   106  VAL106      0.2616
    112  O         -5.2450   20.6230   -2.2580 O.2   106  VAL106     -0.2715
    113  CB        -2.8660   18.6700   -2.8690 C.3   106  VAL106      0.0290
    114  CG1       -1.4450   18.5610   -3.4320 C.3   106  VAL106      0.0023
    115  CG2       -2.8250   19.2020   -1.4400 C.3   106  VAL106      0.0023
    116  N         -6.1430   19.1510   -3.6810 N.am  107  ASP107     -0.1971
    117  CA        -7.4920   19.3140   -3.1490 C.3   107  ASP107      0.1709
    118  C         -7.5300   18.7260   -1.7450 C.2   107  ASP107      0.2293
    119  O         -6.9760   17.6530   -1.5160 O.2   107  ASP107     -0.2864
    120  CB        -8.5220   18.5990   -4.0330 C.3   107  ASP107      0.1436
    121  CG        -8.5270   19.1090   -5.4660 C.2   107  ASP107      0.3671
    122  OD1       -9.4790   18.7820   -6.2090 O.co2 107  ASP107     -0.2456
    123  OD2       -7.6260   19.8400   -5.9360 O.co2 107  ASP107     -0.2456
    124  N         -8.4120   14.9360   -1.1410 N.3   110  ILE110     -0.1245
    125  CA        -7.3310   13.9490   -1.1750 C.3   110  ILE110      0.1561
    126  C         -6.7450   13.6440    0.2030 C.2   110  ILE110      0.2260
    127  O         -6.4280   12.4860    0.5020 O.2   110  ILE110     -0.2867
    128  CB        -6.2130   14.4510   -2.1420 C.3   110  ILE110      0.0252
    129  CG1       -6.6690   14.2810   -3.6010 C.3   110  ILE110      0.0019
    130  CG2       -4.8750   13.7440   -1.8980 C.3   110  ILE110      0.0019
    131  CD1       -6.4110   15.5110   -4.4640 C.3   110  ILE110      0.0001
@<TRIPOS>BOND
     1    25    23   am
     2    23    24    2
     3    23    22    1
     4    22    21    1
     5    21    18    1
     6    20    19    2
     7    33    32    2
     8    31    32    1
     9    31    30    1
    10    43    42    1
    11    32    34   am
    12    19    18    1
    13    18    17    1
    14     6     5    1
    15     6     7    1
    16     8     7    1
    17    42    41    1
    18    30    27    1
    19    99    97   am
    20    96    97    1
    21    96    95    1
    22     5     2    1
    23     4     3    2
    24    27    26    1
    25    27    28    1
    26    17    11   am
    27     3     2    1
    28    29    28    2
    29    97    98    2
    30    41    40    1
    31     2     1    1
    32    95    92    1
    33    92    91    1
    34    92    93    1
    35    11    12    2
    36    11    10    1
    37   122   121   ar
    38    40    39    1
    39   100    93   am
    40   100   101    1
    41   103   102    2
    42   123   121   ar
    43   108   106   am
    44     9    10    1
    45    93    94    2
    46   104   105    1
    47   104   101    1
    48    39    36    1
    49    10    13    1
    50   121   120    1
    51   105   106    1
    52   101   102    1
    53    13    14    1
    54   106   107    2
    55   102   109   am
    56    36    37    1
    57    36    35    1
    58   131   129    1
    59    37    44   am
    60    37    38    2
    61   109   110    1
    62   120   117    1
    63    65    64    1
    64    44    45    1
    65   110   111    1
    66   110   113    1
    67    14    15    1
    68    14    16    1
    69   116   111   am
    70   116   117    1
    71   129   128    1
    72    47    46    2
    73   114   113    1
    74    66    64    1
    75    48    45    1
    76    48    49    1
    77   111   112    2
    78   117   118    1
    79   113   115    1
    80    45    46    1
    81    64    63    1
    82    50    49    1
    83    86    85    2
    84    89    88    1
    85    49    51    1
    86    82    81    1
    87   128   130    1
    88   128   125    1
    89    87    88    1
    90    87    84    1
    91    83    84    1
    92   118   119    2
    93    85    84    1
    94    88    90    1
    95    63    60    1
    96    57    56    1
    97   125   124    1
    98   125   126    1
    99    81    80    1
   100    74    73    1
   101    58    56    1
   102    52    53    1
   103    53    56    1
   104    53    54    1
   105    60    61    1
   106    60    59    1
   107    80    79    1
   108    62    61    2
   109   126   127    2
   110    79    76    1
   111    61    67   am
   112    55    54    2
   113    73    72    1
   114    76    75    1
   115    76    77    1
   116    67    68    1
   117    72    71    1
   118    68    71    1
   119    68    69    1
   120    78    77    2
   121    69    70    2
