@<TRIPOS>MOLECULE
tmp/1zduA00.pdb
 136 128 0 0 0
SMALL
GASTEIGER

@<TRIPOS>ATOM
      1  N         15.5720   24.2080    5.0250 N.3    49  PHE49      -0.1241
      2  CA        16.7990   24.7770    4.4720 C.3    49  PHE49       0.1605
      3  C         16.5400   26.2130    4.0590 C.2    49  PHE49       0.2264
      4  O         17.3580   27.0860    4.2890 O.2    49  PHE49      -0.2867
      5  CB        17.2540   24.0140    3.2240 C.3    49  PHE49       0.0534
      6  CG        18.0790   22.7880    3.5080 C.ar   49  PHE49      -0.0203
      7  CD1       17.5260   21.6930    4.1500 C.ar   49  PHE49      -0.0042
      8  CD2       19.3980   22.7140    3.0970 C.ar   49  PHE49      -0.0042
      9  CE1       18.2750   20.5520    4.3960 C.ar   49  PHE49      -0.0003
     10  CE2       20.1530   21.5750    3.3410 C.ar   49  PHE49      -0.0003
     11  CZ        19.5880   20.4930    3.9920 C.ar   49  PHE49      -0.0000
     12  N         16.2160   28.5150    7.1930 N.3    52  VAL52      -0.1231
     13  CA        17.5050   28.7830    7.8320 C.3    52  VAL52       0.1692
     14  C         18.3020   29.7890    7.0080 C.2    52  VAL52       0.2591
     15  O         19.0330   30.5970    7.5660 O.2    52  VAL52      -0.2718
     16  CB        18.3450   27.5040    8.0240 C.3    52  VAL52       0.0266
     17  CG1       19.7290   27.8410    8.5640 C.3    52  VAL52       0.0020
     18  CG2       17.6660   26.5450    8.9610 C.3    52  VAL52       0.0020
     19  N         18.1450   29.7330    5.6870 N.am   53  GLU53      -0.1979
     20  CA        18.8020   30.6500    4.7640 C.3    53  GLU53       0.1602
     21  C         18.3060   32.0790    4.9750 C.2    53  GLU53       0.2287
     22  O         19.0870   33.0220    4.9920 O.2    53  GLU53      -0.2864
     23  CB        18.5300   30.2090    3.3180 C.3    53  GLU53       0.0415
     24  CG        19.3940   30.8880    2.2650 C.3    53  GLU53       0.1163
     25  CD        19.1640   30.3430    0.8550 C.2    53  GLU53       0.3649
     26  OE1       18.1000   29.7070    0.6080 O.co2  53  GLU53      -0.2457
     27  OE2       20.0540   30.5550   -0.0130 O.co2  53  GLU53      -0.2457
     28  N         19.5190   33.4760    8.3330 N.3    56  ARG56      -0.1245
     29  CA        20.9730   33.6290    8.3360 C.3    56  ARG56       0.1563
     30  C         21.4350   34.9910    7.8270 C.2    56  ARG56       0.2260
     31  O         22.4960   35.4850    8.2200 O.2    56  ARG56      -0.2867
     32  CB        21.5890   32.5300    7.4660 C.3    56  ARG56       0.0307
     33  CG        23.0540   32.2840    7.6830 C.3    56  ARG56       0.0489
     34  CD        23.6500   31.3680    6.6410 C.3    56  ARG56       0.2205
     35  NE        25.0910   31.5570    6.5050 N.pl3  56  ARG56      -0.0865
     36  CZ        25.7820   31.3710    5.3840 C.cat  56  ARG56       0.5346
     37  NH1       25.1830   30.9830    4.2610 N.pl3  56  ARG56       0.1354
     38  NH2       27.0940   31.5750    5.3820 N.pl3  56  ARG56       0.1354
     39  N         19.7700   38.8240   13.2980 N.3    61  PHE61      -0.1241
     40  CA        20.1810   37.4320   13.4320 C.3    61  PHE61       0.1605
     41  C         21.6100   37.2280   12.9200 C.2    61  PHE61       0.2264
     42  O         22.3880   36.4830   13.5080 O.2    61  PHE61      -0.2867
     43  CB        19.2070   36.5620   12.6420 C.3    61  PHE61       0.0534
     44  CG        19.2230   35.1200   13.0240 C.ar   61  PHE61      -0.0203
     45  CD1       18.5100   34.6780   14.1260 C.ar   61  PHE61      -0.0042
     46  CD2       19.9200   34.1930   12.2650 C.ar   61  PHE61      -0.0042
     47  CE1       18.4980   33.3280   14.4730 C.ar   61  PHE61      -0.0003
     48  CE2       19.9110   32.8520   12.6030 C.ar   61  PHE61      -0.0003
     49  CZ        19.1980   32.4190   13.7140 C.ar   61  PHE61      -0.0000
     50  N         27.0130   31.9280   16.2820 N.3    66  VAL66      -0.1231
     51  CA        26.3290   30.7460   15.7480 C.3    66  VAL66       0.1692
     52  C         25.5760   29.9850   16.8390 C.2    66  VAL66       0.2592
     53  O         24.5020   29.4550   16.5870 O.2    66  VAL66      -0.2718
     54  CB        27.3130   29.7850   15.0170 C.3    66  VAL66       0.0266
     55  CG1       26.6220   28.4890   14.5920 C.3    66  VAL66       0.0020
     56  CG2       27.9160   30.4600   13.8010 C.3    66  VAL66       0.0020
     57  N         26.1270   29.9480   18.0490 N.am   67  ASP67      -0.1974
     58  CA        25.5070   29.2190   19.1590 C.3    67  ASP67       0.1709
     59  C         24.1800   29.8310   19.6020 C.2    67  ASP67       0.2293
     60  O         23.2740   29.1160   20.0210 O.2    67  ASP67      -0.2864
     61  CB        26.4660   29.1410   20.3470 C.3    67  ASP67       0.1436
     62  CG        27.6770   28.2860   20.0520 C.2    67  ASP67       0.3671
     63  OD1       28.8100   28.7200   20.3590 O.co2  67  ASP67      -0.2456
     64  OD2       27.5840   27.1650   19.5010 O.co2  67  ASP67      -0.2456
     65  N         22.3270   31.6300   17.4500 N.3    69  GLN69      -0.1231
     66  CA        21.5120   31.3630   16.2690 C.3    69  GLN69       0.1698
     67  C         20.8680   29.9710   16.3160 C.2    69  GLN69       0.2592
     68  O         19.6850   29.8350   16.0200 O.2    69  GLN69      -0.2718
     69  CB        22.3440   31.5400   14.9910 C.3    69  GLN69       0.0381
     70  CG        22.6250   32.9920   14.6410 C.3    69  GLN69       0.0905
     71  CD        23.4080   33.1560   13.3480 C.2    69  GLN69       0.2608
     72  OE1       24.1680   32.2700   12.9530 O.2    69  GLN69      -0.2717
     73  NE2       23.2360   34.2960   12.6940 N.am   69  GLN69      -0.0878
     74  N         21.6390   28.9590   16.7120 N.am   70  MET70      -0.1979
     75  CA        21.1380   27.5890   16.8070 C.3    70  MET70       0.1605
     76  C         20.0730   27.4480   17.8970 C.2    70  MET70       0.2287
     77  O         19.0210   26.8630   17.6690 O.2    70  MET70      -0.2864
     78  CB        22.2820   26.6160   17.0870 C.3    70  MET70       0.0413
     79  CG        23.2200   26.3970   15.9130 C.3    70  MET70       0.0598
     80  SD        24.7330   25.5050   16.3630 S.3    70  MET70      -0.1393
     81  CE        24.0990   23.8500   16.7330 C.3    70  MET70       0.0692
     82  N         16.7700   28.9140   16.6960 N.3    73  LEU73      -0.1231
     83  CA        16.1300   28.1370   15.6240 C.3    73  LEU73       0.1693
     84  C         15.6780   26.7380   16.0800 C.2    73  LEU73       0.2591
     85  O         14.6830   26.2180   15.5800 O.2    73  LEU73      -0.2718
     86  CB        17.0470   28.0240   14.4020 C.3    73  LEU73       0.0284
     87  CG        17.1320   29.2370   13.4680 C.3    73  LEU73       0.0019
     88  CD1       18.3820   29.1360   12.5890 C.3    73  LEU73       0.0001
     89  CD2       15.8840   29.3720   12.5990 C.3    73  LEU73       0.0001
     90  N         16.4070   26.1310   17.0150 N.am   74  GLN74      -0.1979
     91  CA        15.9800   24.8730   17.6370 C.3    74  GLN74       0.1601
     92  C         14.6730   25.0580   18.4070 C.2    74  GLN74       0.2287
     93  O         13.9140   24.1140   18.5950 O.2    74  GLN74      -0.2864
     94  CB        17.0510   24.3470   18.5910 C.3    74  GLN74       0.0394
     95  CG        18.2310   23.6880   17.9090 C.3    74  GLN74       0.0908
     96  CD        19.4270   23.5330   18.8340 C.2    74  GLN74       0.2608
     97  OE1       19.8680   24.5040   19.4520 O.2    74  GLN74      -0.2717
     98  NE2       19.9530   22.3190   18.9320 N.am   74  GLN74      -0.0878
     99  N         17.5570   13.7730    8.2600 N.3   225  ASN225     -0.1225
    100  CA        17.5610   15.0340    7.5450 C.3   225  ASN225      0.1785
    101  C         17.6810   16.2110    8.5270 C.2   225  ASN225      0.2597
    102  O         17.9840   16.0200    9.7180 O.2   225  ASN225     -0.2718
    103  CB        16.2790   15.1440    6.7010 C.3   225  ASN225      0.1169
    104  CG        15.1640   14.2200    7.1850 C.2   225  ASN225      0.2627
    105  OD1       14.9990   13.0990    6.6890 O.2   225  ASN225     -0.2716
    106  ND2       14.3900   14.6930    8.1560 N.am  225  ASN225     -0.0877
    107  N         17.4820   17.4300    8.0310 N.am  226  LEU226     -0.1980
    108  CA        17.4210   18.5840    8.9110 C.3   226  LEU226      0.1596
    109  C         16.2240   18.4500    9.8420 C.2   226  LEU226      0.2287
    110  O         16.3110   18.8220   11.0020 O.2   226  LEU226     -0.2864
    111  CB        17.3350   19.8860    8.1040 C.3   226  LEU226      0.0297
    112  CG        17.2910   21.2110    8.8770 C.3   226  LEU226      0.0022
    113  CD1       18.4500   21.3180    9.8780 C.3   226  LEU226      0.0001
    114  CD2       17.3030   22.3820    7.9060 C.3   226  LEU226      0.0001
    115  N         16.8600   15.9690   12.7340 N.3   229  GLU229     -0.1231
    116  CA        17.9030   16.5340   13.5950 C.3   229  GLU229      0.1699
    117  C         17.3700   17.6440   14.4910 C.2   229  GLU229      0.2592
    118  O         17.7820   17.7570   15.6450 O.2   229  GLU229     -0.2718
    119  CB        19.0980   17.0610   12.7960 C.3   229  GLU229      0.0402
    120  CG        20.3610   17.1640   13.6480 C.3   229  GLU229      0.1161
    121  CD        21.5220   17.8480   12.9440 C.2   229  GLU229      0.3649
    122  OE1       21.6110   19.1060   13.0220 O.co2 229  GLU229     -0.2457
    123  OE2       22.3500   17.1180   12.3400 O.co2 229  GLU229     -0.2457
    124  N         16.4640   18.4670   13.9710 N.am  230  MET230     -0.1979
    125  CA        15.8130   19.4790   14.7970 C.3   230  MET230      0.1605
    126  C         14.9240   18.7730   15.8090 C.2   230  MET230      0.2287
    127  O         14.8680   19.1550   16.9790 O.2   230  MET230     -0.2864
    128  CB        14.9480   20.4150   13.9550 C.3   230  MET230      0.0413
    129  CG        15.6600   21.1610   12.8400 C.3   230  MET230      0.0598
    130  SD        17.1290   22.0240   13.3590 S.3   230  MET230     -0.1393
    131  CE        16.4470   23.0450   14.6290 C.3   230  MET230      0.0692
    132  N         16.3060   17.3020   19.4390 N.3   233  ALA233     -0.1245
    133  CA        16.4280   18.0380   20.7010 C.3   233  ALA233      0.1562
    134  C         15.6950   19.3720   20.6240 C.2   233  ALA233      0.2260
    135  O         14.4660   19.4020   20.5210 O.2   233  ALA233     -0.2867
    136  CB        17.9040   18.2490   21.0840 C.3   233  ALA233      0.0290
@<TRIPOS>BOND
     1    27    25   ar
     2    26    25   ar
     3    25    24    1
     4    24    23    1
     5     8    10   ar
     6     8     6   ar
     7     5     6    1
     8     5     2    1
     9    23    20    1
    10    10    11   ar
    11     6     7   ar
    12    11     9   ar
    13     3     4    2
    14     3     2    1
    15     7     9   ar
    16    37    36    1
    17     2     1    1
    18    20    21    1
    19    20    19    1
    20    21    22    2
    21    38    36    1
    22    36    35    2
    23    19    14   am
    24    35    34    1
    25    34    33    1
    26   105   104    2
    27   103   104    1
    28   103   100    1
    29    14    15    2
    30    14    13    1
    31   104   106   am
    32    12    13    1
    33    32    33    1
    34    32    29    1
    35   100    99    1
    36   100   101    1
    37    30    31    2
    38    30    29    1
    39    13    16    1
    40   114   112    1
    41    16    17    1
    42    16    18    1
    43   107   101   am
    44   107   108    1
    45   111   112    1
    46   111   108    1
    47    28    29    1
    48   101   102    2
    49   112   113    1
    50   108   109    1
    51   109   110    2
    52    46    48   ar
    53    46    44   ar
    54   123   121   ar
    55    88    87    1
    56    89    87    1
    57    48    49   ar
    58    43    44    1
    59    43    40    1
    60    73    71   am
    61   115   116    1
    62   119   116    1
    63   119   120    1
    64   129   130    1
    65   129   128    1
    66    41    40    1
    67    41    42    2
    68   121   122   ar
    69   121   120    1
    70    72    71    2
    71    44    45   ar
    72    39    40    1
    73    71    70    1
    74   130   131    1
    75    87    86    1
    76   116   117    1
    77    49    47   ar
    78    56    54    1
    79   128   125    1
    80   124   117   am
    81   124   125    1
    82    45    47   ar
    83    86    83    1
    84   117   118    2
    85    55    54    1
    86    70    69    1
    87   125   126    1
    88    69    66    1
    89    54    51    1
    90    85    84    2
    91    83    84    1
    92    83    82    1
    93    51    50    1
    94    51    52    1
    95   126   127    2
    96    79    80    1
    97    79    78    1
    98    68    67    2
    99    84    90   am
   100    66    67    1
   101    66    65    1
   102    67    74   am
   103    80    81    1
   104    53    52    2
   105    74    75    1
   106    75    78    1
   107    75    76    1
   108    52    57   am
   109    90    91    1
   110    91    92    1
   111    91    94    1
   112    77    76    2
   113    95    94    1
   114    95    96    1
   115    57    58    1
   116    92    93    2
   117    96    98   am
   118    96    97    2
   119    58    59    1
   120    58    61    1
   121   132   133    1
   122    64    62   ar
   123    59    60    2
   124    62    61    1
   125    62    63   ar
   126   135   134    2
   127   134   133    1
   128   133   136    1
