@<TRIPOS>MOLECULE
tmp/1zdwA00.pdb
 149 143 0 0 0
SMALL
GASTEIGER

@<TRIPOS>ATOM
      1  N         32.7970   20.5140   15.6520 N.3    45  VAL45      -0.1245
      2  CA        31.7700   21.5420   15.6360 C.3    45  VAL45       0.1561
      3  C         30.4290   20.8310   15.4710 C.2    45  VAL45       0.2260
      4  O         30.2710   19.9560   14.6140 O.2    45  VAL45      -0.2867
      5  CB        31.9730   22.5610   14.4770 C.3    45  VAL45       0.0252
      6  CG1       30.8390   23.5810   14.4810 C.3    45  VAL45       0.0019
      7  CG2       33.2990   23.2740   14.6360 C.3    45  VAL45       0.0019
      8  N         34.7130   22.3760    3.6030 N.3   121  PHE121     -0.1241
      9  CA        35.4550   23.5620    4.0560 C.3   121  PHE121      0.1605
     10  C         36.7950   23.6870    3.3570 C.2   121  PHE121      0.2264
     11  O         37.4870   22.6960    3.1410 O.2   121  PHE121     -0.2867
     12  CB        35.7260   23.5160    5.5600 C.3   121  PHE121      0.0534
     13  CG        34.4990   23.5620    6.4020 C.ar  121  PHE121     -0.0203
     14  CD1       33.6140   22.4880    6.4240 C.ar  121  PHE121     -0.0042
     15  CD2       34.2420   24.6700    7.2070 C.ar  121  PHE121     -0.0042
     16  CE1       32.4830   22.5090    7.2430 C.ar  121  PHE121     -0.0003
     17  CE2       33.1160   24.7070    8.0320 C.ar  121  PHE121     -0.0003
     18  CZ        32.2320   23.6230    8.0520 C.ar  121  PHE121     -0.0000
     19  N         34.5050   30.3440    1.7580 N.3   159  GLN159     -0.1231
     20  CA        35.0820   29.5850    2.8620 C.3   159  GLN159      0.1698
     21  C         34.6380   28.1250    2.8270 C.2   159  GLN159      0.2592
     22  O         35.2930   27.2590    3.4020 O.2   159  GLN159     -0.2718
     23  CB        34.6810   30.2250    4.1990 C.3   159  GLN159      0.0381
     24  CG        35.1660   29.4720    5.4340 C.3   159  GLN159      0.0905
     25  CD        36.6680   29.5620    5.6220 C.2   159  GLN159      0.2608
     26  OE1       37.1890   30.5960    6.0450 O.2   159  GLN159     -0.2717
     27  NE2       37.3760   28.4760    5.2990 N.am  159  GLN159     -0.0878
     28  N         33.5220   27.8510    2.1570 N.am  160  MET160     -0.1979
     29  CA        33.0090   26.4810    2.0610 C.3   160  MET160      0.1605
     30  C         31.7710   26.3810    1.1680 C.2   160  MET160      0.2287
     31  O         31.1900   27.3890    0.7540 O.2   160  MET160     -0.2864
     32  CB        32.6590   25.9350    3.4570 C.3   160  MET160      0.0413
     33  CG        31.4370   26.5790    4.0860 C.3   160  MET160      0.0598
     34  SD        30.9820   25.8400    5.6620 S.3   160  MET160     -0.1393
     35  CE        30.5180   27.2760    6.5450 C.3   160  MET160      0.0692
     36  N         29.1960   29.6790    0.4630 N.3   173  TYR173     -0.1227
     37  CA        29.3790   30.5430    1.6130 C.3   173  TYR173      0.1736
     38  C         30.5080   31.5440    1.3840 C.2   173  TYR173      0.2595
     39  O         31.6760   31.2240    1.5860 O.2   173  TYR173     -0.2718
     40  CB        29.6530   29.6820    2.8510 C.3   173  TYR173      0.0548
     41  CG        28.5020   28.7440    3.1710 C.ar  173  TYR173     -0.0200
     42  CD1       28.3330   27.5480    2.4670 C.ar  173  TYR173     -0.0009
     43  CD2       27.5340   29.0930    4.1190 C.ar  173  TYR173     -0.0009
     44  CE1       27.2290   26.7180    2.6900 C.ar  173  TYR173      0.0417
     45  CE2       26.4210   28.2720    4.3500 C.ar  173  TYR173      0.0417
     46  CZ        26.2790   27.0820    3.6270 C.ar  173  TYR173      0.1957
     47  OH        25.2110   26.2460    3.8470 O.3   173  TYR173     -0.2866
     48  N         30.1650   32.7520    0.9480 N.am  174  PHE174     -0.1962
     49  CA        31.1810   33.7660    0.6950 C.3   174  PHE174      0.1771
     50  C         31.7450   34.3310    1.9730 C.2   174  PHE174      0.2620
     51  O         31.0320   34.5040    2.9570 O.2   174  PHE174     -0.2715
     52  CB        30.6200   34.8970   -0.1490 C.3   174  PHE174      0.0574
     53  CG        30.3160   34.4970   -1.5550 C.ar  174  PHE174     -0.0200
     54  CD1       28.9990   34.2800   -1.9550 C.ar  174  PHE174     -0.0042
     55  CD2       31.3420   34.3310   -2.4820 C.ar  174  PHE174     -0.0042
     56  CE1       28.7080   33.8980   -3.2570 C.ar  174  PHE174     -0.0003
     57  CE2       31.0610   33.9500   -3.7860 C.ar  174  PHE174     -0.0003
     58  CZ        29.7390   33.7350   -4.1760 C.ar  174  PHE174     -0.0000
     59  N         33.0360   34.6360    1.9510 N.am  175  SER175     -0.1950
     60  CA        33.6930   35.1750    3.1320 C.3   175  SER175      0.1924
     61  C         34.4790   36.4410    2.8120 C.2   175  SER175      0.2314
     62  O         34.5080   36.9070    1.6670 O.2   175  SER175     -0.2863
     63  CB        34.6120   34.1110    3.7410 C.3   175  SER175      0.2116
     64  OG        35.0830   34.5280    5.0130 O.3   175  SER175     -0.2180
     65  N         28.6980   38.3010    8.6230 N.3   211  PHE211     -0.1227
     66  CA        30.0820   37.9010    8.4710 C.3   211  PHE211      0.1736
     67  C         30.1470   36.9270    7.2960 C.2   211  PHE211      0.2596
     68  O         31.2230   36.6150    6.7830 O.2   211  PHE211     -0.2718
     69  CB        30.5890   37.2230    9.7470 C.3   211  PHE211      0.0547
     70  CG        30.1220   35.8010    9.9220 C.ar  211  PHE211     -0.0202
     71  CD1       30.9150   34.7370    9.5000 C.ar  211  PHE211     -0.0042
     72  CD2       28.9000   35.5270   10.5280 C.ar  211  PHE211     -0.0042
     73  CE1       30.5000   33.4180    9.6810 C.ar  211  PHE211     -0.0003
     74  CE2       28.4730   34.2130   10.7150 C.ar  211  PHE211     -0.0003
     75  CZ        29.2720   33.1590   10.2910 C.ar  211  PHE211     -0.0000
     76  N         28.9860   36.4400    6.8790 N.am  212  SER212     -0.1952
     77  CA        28.9180   35.5130    5.7600 C.3   212  SER212      0.1924
     78  C         27.6150   35.6380    4.9940 C.2   212  SER212      0.2314
     79  O         26.5730   35.9200    5.5750 O.2   212  SER212     -0.2863
     80  CB        29.0900   34.0800    6.2570 C.3   212  SER212      0.2116
     81  OG        28.9440   33.1630    5.1840 O.3   212  SER212     -0.2180
     82  N         25.3960   33.6440    1.7240 N.3   214  TYR214     -0.1241
     83  CA        25.3770   32.5150    0.8230 C.3   214  TYR214      0.1605
     84  C         24.1270   32.3340   -0.0010 C.2   214  TYR214      0.2264
     85  O         23.0110   32.2980    0.5210 O.2   214  TYR214     -0.2867
     86  CB        25.6640   31.2220    1.5720 C.3   214  TYR214      0.0534
     87  CG        24.8350   30.9830    2.8050 C.ar  214  TYR214     -0.0201
     88  CD1       23.7600   30.0890    2.7860 C.ar  214  TYR214     -0.0009
     89  CD2       25.1890   31.5680    4.0150 C.ar  214  TYR214     -0.0009
     90  CE1       23.0690   29.7680    3.9520 C.ar  214  TYR214      0.0417
     91  CE2       24.5090   31.2620    5.1910 C.ar  214  TYR214      0.0417
     92  CZ        23.4580   30.3590    5.1580 C.ar  214  TYR214      0.1957
     93  OH        22.8180   30.0140    6.3310 O.3   214  TYR214     -0.2866
     94  N         24.2830   35.6620    7.2520 N.3   230  ALA230     -0.1245
     95  CA        24.5610   35.0530    8.5490 C.3   230  ALA230      0.1562
     96  C         25.3170   35.9980    9.4870 C.2   230  ALA230      0.2260
     97  O         26.2700   36.6660    9.0840 O.2   230  ALA230     -0.2867
     98  CB        25.3630   33.7630    8.3590 C.3   230  ALA230      0.0290
     99  N         27.1480   36.0650   13.3990 N.3   232  ILE232     -0.1245
    100  CA        27.5960   35.2180   14.5040 C.3   232  ILE232      0.1561
    101  C         27.7090   36.1210   15.7320 C.2   232  ILE232      0.2260
    102  O         28.2280   37.2390   15.6410 O.2   232  ILE232     -0.2867
    103  CB        28.9520   34.5320   14.1870 C.3   232  ILE232      0.0252
    104  CG1       29.3960   33.6870   15.3830 C.3   232  ILE232      0.0019
    105  CG2       30.0130   35.5760   13.8230 C.3   232  ILE232      0.0019
    106  CD1       30.5690   32.7590   15.0870 C.3   232  ILE232      0.0001
    107  N         24.5670   31.5090   15.6850 N.3   269  VAL269     -0.1245
    108  CA        24.6540   31.9820   14.3160 C.3   269  VAL269      0.1561
    109  C         23.2340   32.1740   13.8260 C.2   269  VAL269      0.2260
    110  O         22.4510   31.2210   13.7200 O.2   269  VAL269     -0.2867
    111  CB        25.3900   31.0040   13.4010 C.3   269  VAL269      0.0252
    112  CG1       25.3330   31.5140   11.9440 C.3   269  VAL269      0.0019
    113  CG2       26.8440   30.9010   13.8330 C.3   269  VAL269      0.0019
    114  N         25.2810   26.5440   18.8500 N.3   286  TYR286     -0.1241
    115  CA        26.3950   25.6130   18.8590 C.3   286  TYR286      0.1605
    116  C         26.4860   24.7850   20.1280 C.2   286  TYR286      0.2264
    117  O         26.4130   25.3140   21.2350 O.2   286  TYR286     -0.2867
    118  CB        27.6910   26.3850   18.6550 C.3   286  TYR286      0.0534
    119  CG        27.9260   26.7810   17.2220 C.ar  286  TYR286     -0.0201
    120  CD1       27.0330   27.6110   16.5500 C.ar  286  TYR286     -0.0009
    121  CD2       29.0200   26.2830   16.5220 C.ar  286  TYR286     -0.0009
    122  CE1       27.2220   27.9290   15.2160 C.ar  286  TYR286      0.0417
    123  CE2       29.2170   26.5940   15.1860 C.ar  286  TYR286      0.0417
    124  CZ        28.3160   27.4120   14.5450 C.ar  286  TYR286      0.1957
    125  OH        28.5060   27.6920   13.2180 O.3   286  TYR286     -0.2866
    126  N         37.9190   28.4150   15.6830 N.3   292  VAL292     -0.1231
    127  CA        37.3920   29.0780   14.4990 C.3   292  VAL292      0.1692
    128  C         36.2490   30.0060   14.9000 C.2   292  VAL292      0.2591
    129  O         36.2600   31.1960   14.5820 O.2   292  VAL292     -0.2718
    130  CB        36.8830   28.0500   13.4550 C.3   292  VAL292      0.0266
    131  CG1       36.2650   28.7800   12.2680 C.3   292  VAL292      0.0020
    132  CG2       38.0430   27.1710   12.9850 C.3   292  VAL292      0.0020
    133  N         35.2640   29.4560   15.6080 N.am  293  GLN293     -0.1979
    134  CA        34.1190   30.2360   16.0620 C.3   293  GLN293      0.1601
    135  C         34.5780   31.3290   17.0230 C.2   293  GLN293      0.2287
    136  O         34.0720   32.4490   16.9860 O.2   293  GLN293     -0.2864
    137  CB        33.0840   29.3340   16.7560 C.3   293  GLN293      0.0394
    138  CG        32.3150   28.3930   15.8280 C.3   293  GLN293      0.0908
    139  CD        33.1910   27.3160   15.2180 C.2   293  GLN293      0.2608
    140  OE1       33.2510   27.1630   13.9950 O.2   293  GLN293     -0.2717
    141  NE2       33.8680   26.5600   16.0630 N.am  293  GLN293     -0.0878
    142  N         35.9970   34.0960   15.0300 N.3   296  LEU296     -0.1245
    143  CA        34.9450   34.8060   14.3050 C.3   296  LEU296      0.1561
    144  C         34.2160   35.7830   15.2240 C.2   296  LEU296      0.2260
    145  O         33.9140   36.9170   14.8330 O.2   296  LEU296     -0.2867
    146  CB        33.9500   33.8050   13.6980 C.3   296  LEU296      0.0270
    147  CG        34.4680   33.0300   12.4780 C.3   296  LEU296      0.0019
    148  CD1       33.4500   31.9780   12.0570 C.3   296  LEU296      0.0001
    149  CD2       34.7350   34.0020   11.3260 C.3   296  LEU296      0.0001
@<TRIPOS>BOND
     1    58    57   ar
     2    58    56   ar
     3    57    55   ar
     4    56    54   ar
     5    55    53   ar
     6    54    53   ar
     7    53    52    1
     8    52    49    1
     9    84    85    2
    10    84    83    1
    11    36    37    1
    12    49    48    1
    13    49    50    1
    14    31    30    2
    15    83    86    1
    16    83    82    1
    17    48    38   am
    18    30    29    1
    19    38    39    2
    20    38    37    1
    21    86    87    1
    22    37    40    1
    23    62    61    2
    24    19    20    1
    25    59    50   am
    26    59    60    1
    27    50    51    2
    28    29    28    1
    29    29    32    1
    30    28    21   am
    31    42    44   ar
    32    42    41   ar
    33    44    46   ar
    34    88    87   ar
    35    88    90   ar
    36    87    89   ar
    37    61    60    1
    38    21    20    1
    39    21    22    2
    40    40    41    1
    41    20    23    1
    42    60    63    1
    43    11    10    2
    44    41    43   ar
    45    10     9    1
    46    32    33    1
    47     8     9    1
    48    46    47    1
    49    46    45   ar
    50    63    64    1
    51    90    92   ar
    52    89    91   ar
    53     9    12    1
    54    33    34    1
    55    43    45   ar
    56    23    24    1
    57    78    79    2
    58    78    77    1
    59    92    91   ar
    60    92    93    1
    61    81    80    1
    62    27    25   am
    63    24    25    1
    64    12    13    1
    65    25    26    2
    66    34    35    1
    67    77    80    1
    68    77    76    1
    69    13    14   ar
    70    13    15   ar
    71    14    16   ar
    72    68    67    2
    73    76    67   am
    74    15    17   ar
    75    16    18   ar
    76    94    95    1
    77    67    66    1
    78    17    18   ar
    79    98    95    1
    80    66    65    1
    81    66    69    1
    82    95    96    1
    83    97    96    2
    84    71    73   ar
    85    71    70   ar
    86    73    75   ar
    87    69    70    1
    88    70    72   ar
    89    75    74   ar
    90    72    74   ar
    91   149   147    1
    92   112   111    1
    93   148   147    1
    94   131   130    1
    95   147   146    1
    96   132   130    1
    97   125   124    1
    98    99   100    1
    99   111   113    1
   100   111   108    1
   101   130   127    1
   102   146   143    1
   103   110   109    2
   104   105   103    1
   105   109   108    1
   106   140   139    2
   107   103   100    1
   108   103   104    1
   109   143   142    1
   110   143   144    1
   111   108   107    1
   112     5     6    1
   113     5     7    1
   114     5     2    1
   115   127   128    1
   116   127   126    1
   117   100   101    1
   118   124   123   ar
   119   124   122   ar
   120   129   128    2
   121     4     3    2
   122   145   144    2
   123   128   133   am
   124   106   104    1
   125   123   121   ar
   126   122   120   ar
   127   139   138    1
   128   139   141   am
   129     3     2    1
   130   133   134    1
   131     2     1    1
   132   102   101    2
   133   138   137    1
   134   134   137    1
   135   134   135    1
   136   121   119   ar
   137   120   119   ar
   138   136   135    2
   139   119   118    1
   140   118   115    1
   141   114   115    1
   142   115   116    1
   143   116   117    2
