@<TRIPOS>MOLECULE
tmp/1zdyA00.pdb
 133 123 0 0 0
SMALL
GASTEIGER

@<TRIPOS>ATOM
      1  N         13.3730   29.1160   12.6290 N.3    51  ALA51      -0.1245
      2  CA        12.8640   30.0390   11.6220 C.3    51  ALA51       0.1562
      3  C         11.4250   30.4200   11.9510 C.2    51  ALA51       0.2260
      4  O         10.7820   29.7940   12.7970 O.2    51  ALA51      -0.2867
      5  CB        12.9360   29.4120   10.2370 C.3    51  ALA51       0.0290
      6  N          6.1050   29.8890    7.8520 N.3    54  ARG54      -0.1231
      7  CA         5.8870   28.5250    7.3920 C.3    54  ARG54       0.1694
      8  C          7.1150   27.6280    7.4980 C.2    54  ARG54       0.2592
      9  O          7.0670   26.4610    7.1140 O.2    54  ARG54      -0.2718
     10  CB         5.3680   28.5240    5.9470 C.3    54  ARG54       0.0321
     11  CG         6.4170   28.7300    4.8620 C.3    54  ARG54       0.0489
     12  CD         5.8640   28.2410    3.5220 C.3    54  ARG54       0.2205
     13  NE         6.8680   28.2010    2.4620 N.pl3  54  ARG54      -0.0865
     14  CZ         7.3510   29.2740    1.8460 C.cat  54  ARG54       0.5346
     15  NH1        6.9210   30.4830    2.1800 N.pl3  54  ARG54       0.1354
     16  NH2        8.2650   29.1380    0.8930 N.pl3  54  ARG54       0.1354
     17  N          8.2080   28.1640    8.0310 N.am   55  HIS55      -0.1976
     18  CA         9.4300   27.3790    8.1790 C.3    55  HIS55       0.1656
     19  C          9.7150   27.0600    9.6470 C.2    55  HIS55       0.2291
     20  O         10.7660   26.5110    9.9700 O.2    55  HIS55      -0.2864
     21  CB        10.6320   28.1480    7.6100 C.3    55  HIS55       0.0771
     22  CG        10.4170   28.6800    6.2270 C.ar   55  HIS55       0.0820
     23  ND1        9.7700   29.8720    5.9760 N.ar   55  HIS55      -0.2267
     24  CD2       10.7540   28.1730    5.0170 C.ar   55  HIS55       0.1154
     25  CE1        9.7190   30.0770    4.6710 C.ar   55  HIS55       0.1986
     26  NE2       10.3090   29.0620    4.0670 N.ar   55  HIS55      -0.2212
     27  N         10.6810   23.2820   11.8190 N.3    58  GLU58      -0.1245
     28  CA        11.9320   22.5650   11.6270 C.3    58  GLU58       0.1567
     29  C         13.0900   23.2240   12.3520 C.2    58  GLU58       0.2260
     30  O         13.1080   24.4390   12.5380 O.2    58  GLU58      -0.2867
     31  CB        12.2660   22.4730   10.1370 C.3    58  GLU58       0.0388
     32  CG        13.4520   21.5690    9.8510 C.3    58  GLU58       0.1160
     33  CD        13.1800   20.1330   10.2580 C.2    58  GLU58       0.3649
     34  OE1       12.4410   19.4430    9.5240 O.co2  58  GLU58      -0.2457
     35  OE2       13.6880   19.7030   11.3140 O.co2  58  GLU58      -0.2457
     36  N         17.2070   23.3660   12.0730 N.3    60  ASP60      -0.1239
     37  CA        18.3610   22.9670   11.2790 C.3    60  ASP60       0.1674
     38  C         19.5820   22.8800   12.1770 C.2    60  ASP60       0.2266
     39  O         19.6320   23.4930   13.2490 O.2    60  ASP60      -0.2867
     40  CB        18.6490   23.9840   10.1660 C.3    60  ASP60       0.1410
     41  CG        17.5010   24.1320    9.1940 C.2    60  ASP60       0.3668
     42  OD1       17.0520   23.1090    8.6430 O.co2  60  ASP60      -0.2456
     43  OD2       17.0540   25.2800    8.9790 O.co2  60  ASP60      -0.2456
     44  N         18.3410   18.6670    8.9530 N.3   110  GLU110     -0.1245
     45  CA        17.1390   19.0350    9.6960 C.3   110  GLU110      0.1567
     46  C         16.9550   17.9410   10.7430 C.2   110  GLU110      0.2260
     47  O         17.1990   16.7670   10.4590 O.2   110  GLU110     -0.2867
     48  CB        15.9280   19.0630    8.7560 C.3   110  GLU110      0.0388
     49  CG        16.0870   19.9930    7.5570 C.3   110  GLU110      0.1160
     50  CD        14.9830   19.8260    6.5190 C.2   110  GLU110      0.3649
     51  OE1       14.8510   18.7200    5.9520 O.co2 110  GLU110     -0.2457
     52  OE2       14.2420   20.8010    6.2660 O.co2 110  GLU110     -0.2457
     53  N         21.2390   17.0100    4.6000 N.3   116  LYS116     -0.1231
     54  CA        20.7780   17.5590    3.3260 C.3   116  LYS116      0.1693
     55  C         21.6740   18.6390    2.7230 C.2   116  LYS116      0.2591
     56  O         21.4280   19.0870    1.6050 O.2   116  LYS116     -0.2718
     57  CB        19.3570   18.1160    3.4680 C.3   116  LYS116      0.0285
     58  CG        19.2340   19.3020    4.4140 C.3   116  LYS116      0.0035
     59  CD        18.6600   20.5260    3.7030 C.3   116  LYS116      0.0206
     60  CE        17.2290   20.2940    3.2560 C.3   116  LYS116      0.1093
     61  NZ        16.6850   21.4470    2.4780 N.3   116  LYS116     -0.1314
     62  N         22.7350   19.0350    3.4250 N.am  117  LYS117     -0.1980
     63  CA        23.5690   20.1150    2.9160 C.3   117  LYS117      0.1596
     64  C         25.0230   20.0600    3.3530 C.2   117  LYS117      0.2287
     65  O         25.3420   19.4990    4.3980 O.2   117  LYS117     -0.2864
     66  CB        22.9560   21.4360    3.3900 C.3   117  LYS117      0.0298
     67  CG        23.7470   22.6930    3.0950 C.3   117  LYS117      0.0038
     68  CD        22.9990   23.9320    3.6030 C.3   117  LYS117      0.0206
     69  CE        21.6270   24.0570    2.9490 C.3   117  LYS117      0.1093
     70  NZ        20.8530   25.2360    3.4400 N.3   117  LYS117     -0.1314
     71  N         22.6700   22.3900   -1.3080 N.3   164  ASP164     -0.1239
     72  CA        21.4930   21.6990   -0.7990 C.3   164  ASP164      0.1674
     73  C         21.1940   20.5650   -1.7780 C.2   164  ASP164      0.2266
     74  O         20.7560   20.8080   -2.8990 O.2   164  ASP164     -0.2867
     75  CB        20.3170   22.6730   -0.7430 C.3   164  ASP164      0.1410
     76  CG        19.0950   22.0750   -0.0860 C.2   164  ASP164      0.3668
     77  OD1       18.8200   20.8780   -0.3110 O.co2 164  ASP164     -0.2456
     78  OD2       18.3990   22.8150    0.6430 O.co2 164  ASP164     -0.2456
     79  N         17.0880   20.1080   -2.4460 N.3   167  LYS167     -0.1245
     80  CA        16.4800   21.1630   -3.2550 C.3   167  LYS167      0.1561
     81  C         17.2980   21.5030   -4.5010 C.2   167  LYS167      0.2260
     82  O         16.8230   22.2200   -5.3820 O.2   167  LYS167     -0.2867
     83  CB        16.3030   22.4330   -2.4200 C.3   167  LYS167      0.0271
     84  CG        15.4090   22.2660   -1.2050 C.3   167  LYS167      0.0035
     85  CD        15.1030   23.6120   -0.5770 C.3   167  LYS167      0.0206
     86  CE        14.1830   23.4690    0.6170 C.3   167  LYS167      0.1093
     87  NZ        13.8110   24.8050    1.1430 N.3   167  LYS167     -0.1314
     88  N         16.6100   32.6180   -6.4990 N.3   225  ASP225     -0.1225
     89  CA        15.4540   32.1690   -5.7230 C.3   225  ASP225      0.1805
     90  C         15.0840   33.0440   -4.5320 C.2   225  ASP225      0.2597
     91  O         13.9050   33.2800   -4.2730 O.2   225  ASP225     -0.2718
     92  CB        15.6870   30.7330   -5.2360 C.3   225  ASP225      0.1424
     93  CG        15.8290   29.7410   -6.3800 C.2   225  ASP225      0.3668
     94  OD1       14.8020   29.3760   -6.9930 O.co2 225  ASP225     -0.2456
     95  OD2       16.9720   29.3340   -6.6710 O.co2 225  ASP225     -0.2456
     96  N         16.0900   33.5100   -3.8000 N.am  226  ARG226     -0.1979
     97  CA        15.8660   34.3450   -2.6250 C.3   226  ARG226      0.1597
     98  C         17.1790   34.9890   -2.1970 C.2   226  ARG226      0.2287
     99  O         18.2400   34.6210   -2.6970 O.2   226  ARG226     -0.2864
    100  CB        15.2920   33.5020   -1.4790 C.3   226  ARG226      0.0334
    101  CG        16.1170   32.2780   -1.1210 C.3   226  ARG226      0.0492
    102  CD        15.4700   31.4650    0.0090 C.3   226  ARG226      0.2205
    103  NE        16.3000   30.3310    0.4190 N.pl3 226  ARG226     -0.0865
    104  CZ        16.3300   29.1500   -0.1950 C.cat 226  ARG226      0.5346
    105  NH1       15.5650   28.9210   -1.2550 N.pl3 226  ARG226      0.1354
    106  NH2       17.1470   28.2030    0.2410 N.pl3 226  ARG226      0.1354
    107  N         12.1230   36.5870   -0.3570 N.3   275  SER275     -0.1217
    108  CA        11.7930   35.7430   -1.5010 C.3   275  SER275      0.1889
    109  C         10.8290   36.5510   -2.3670 C.2   275  SER275      0.2288
    110  O         10.4120   37.6410   -1.9780 O.2   275  SER275     -0.2866
    111  CB        11.1250   34.4450   -1.0360 C.3   275  SER275      0.2089
    112  OG         9.8000   34.6810   -0.5980 O.3   275  SER275     -0.2183
    113  N         10.9110   36.2690    5.6910 N.3   280  TYR280     -0.1241
    114  CA        10.8450   35.4810    6.9140 C.3   280  TYR280      0.1605
    115  C         12.1480   35.6300    7.6870 C.2   280  TYR280      0.2264
    116  O         13.1380   36.1340    7.1550 O.2   280  TYR280     -0.2867
    117  CB        10.4890   34.0080    6.6370 C.3   280  TYR280      0.0534
    118  CG        11.5390   33.1670    5.9650 C.ar  280  TYR280     -0.0201
    119  CD1       12.4860   32.4650    6.7110 C.ar  280  TYR280     -0.0009
    120  CD2       11.5510   33.0250    4.5850 C.ar  280  TYR280     -0.0009
    121  CE1       13.4170   31.6360    6.0900 C.ar  280  TYR280      0.0417
    122  CE2       12.4700   32.2050    3.9560 C.ar  280  TYR280      0.0417
    123  CZ        13.4010   31.5110    4.7100 C.ar  280  TYR280      0.1957
    124  OH        14.3110   30.6960    4.0780 O.3   280  TYR280     -0.2866
    125  N         15.1720   34.1120   10.6150 N.3   282  LYS282     -0.1245
    126  CA        15.8990   32.9480   11.1020 C.3   282  LYS282      0.1561
    127  C         16.8070   33.3260   12.2640 C.2   282  LYS282      0.2260
    128  O         17.2380   34.4760   12.3840 O.2   282  LYS282     -0.2867
    129  CB        16.7640   32.3520    9.9870 C.3   282  LYS282      0.0271
    130  CG        16.0000   31.9320    8.7470 C.3   282  LYS282      0.0035
    131  CD        16.9110   31.1950    7.7870 C.3   282  LYS282      0.0206
    132  CE        18.1070   32.0370    7.3910 C.3   282  LYS282      0.1093
    133  NZ        18.9640   31.3020    6.4180 N.3   282  LYS282     -0.1314
@<TRIPOS>BOND
     1    94    93   ar
     2    95    93   ar
     3    88    89    1
     4    93    92    1
     5    89    92    1
     6    89    90    1
     7    82    81    2
     8    90    91    2
     9    90    96   am
    10    81    80    1
    11    96    97    1
    12    80    79    1
    13    80    83    1
    14    74    73    2
    15    99    98    2
    16    97    98    1
    17    97   100    1
    18    83    84    1
    19   109   110    2
    20   109   108    1
    21    73    72    1
    22   108   111    1
    23   108   107    1
    24   100   101    1
    25    71    72    1
    26   105   104    1
    27    84    85    1
    28   101   102    1
    29   111   112    1
    30    72    75    1
    31    75    76    1
    32    85    86    1
    33    77    76   ar
    34   104   106    1
    35   104   103    2
    36    76    78   ar
    37   102   103    1
    38    86    87    1
    39    16    14    1
    40    56    55    2
    41    14    15    1
    42    14    13    2
    43    13    12    1
    44    61    60    1
    45    55    54    1
    46    55    62   am
    47    63    64    1
    48    63    66    1
    49    63    62    1
    50    69    70    1
    51    69    68    1
    52    67    66    1
    53    67    68    1
    54    60    59    1
    55    54    57    1
    56    54    53    1
    57    64    65    2
    58    57    58    1
    59    12    11    1
    60    59    58    1
    61   122   120   ar
    62   122   123   ar
    63    26    25   ar
    64    26    24   ar
    65   124   123    1
    66   120   118   ar
    67    25    23   ar
    68   123   121   ar
    69    11    10    1
    70    24    22   ar
    71   113   114    1
    72    10     7    1
    73    51    50   ar
    74   118   117    1
    75   118   119   ar
    76    23    22   ar
    77   121   119   ar
    78    22    21    1
    79    52    50   ar
    80   133   132    1
    81    50    49    1
    82   117   114    1
    83   114   115    1
    84     9     8    2
    85   116   115    2
    86   132   131    1
    87     7     8    1
    88     7     6    1
    89     8    17   am
    90    49    48    1
    91    21    18    1
    92   131   130    1
    93    17    18    1
    94    18    19    1
    95    42    41   ar
    96   130   129    1
    97    48    45    1
    98    44    45    1
    99    43    41   ar
   100    41    40    1
   101    34    33   ar
   102    19    20    2
   103    45    46    1
   104    32    31    1
   105    32    33    1
   106   129   126    1
   107    31    28    1
   108    40    37    1
   109     5     2    1
   110    33    35   ar
   111    47    46    2
   112   125   126    1
   113   126   127    1
   114    37    36    1
   115    37    38    1
   116     2     3    1
   117     2     1    1
   118    28    27    1
   119    28    29    1
   120     3     4    2
   121    38    39    2
   122   127   128    2
   123    29    30    2
