@<TRIPOS>MOLECULE
tmp/1ze8A01.pdb
 134 132 0 0 0
SMALL
GASTEIGER

@<TRIPOS>ATOM
      1  N         -8.2820    0.4980    5.6420 N.3    65  ASN65      -0.1240
      2  CA        -9.1080    1.4890    6.3190 C.3    65  ASN65       0.1653
      3  C        -10.3320    1.9390    5.5400 C.2    65  ASN65       0.2266
      4  O        -10.2290    2.3150    4.3710 O.2    65  ASN65      -0.2867
      5  CB        -8.2900    2.7550    6.6130 C.3    65  ASN65       0.1155
      6  CG        -7.1730    2.5310    7.6100 C.2    65  ASN65       0.2627
      7  OD1       -6.2680    3.3550    7.7250 O.2    65  ASN65      -0.2716
      8  ND2       -7.2340    1.4280    8.3410 N.am   65  ASN65      -0.0877
      9  N        -13.9150    8.3270   12.6760 N.3    89  ILE89      -0.1231
     10  CA       -13.0490    8.7670   11.5950 C.3    89  ILE89       0.1692
     11  C        -12.7150    7.6260   10.6380 C.2    89  ILE89       0.2591
     12  O        -12.5460    7.8460    9.4380 O.2    89  ILE89      -0.2718
     13  CB       -11.7450    9.3840   12.1410 C.3    89  ILE89       0.0266
     14  CG1      -10.8780    9.8750   10.9770 C.3    89  ILE89       0.0019
     15  CG2      -10.9980    8.3660   12.9930 C.3    89  ILE89       0.0020
     16  CD1       -9.6760   10.7010   11.4040 C.3    89  ILE89       0.0001
     17  N        -12.6240    6.4080   11.1640 N.am   90  GLN90      -0.1979
     18  CA       -12.3190    5.2490   10.3300 C.3    90  GLN90       0.1601
     19  C        -12.4410    3.9480   11.1040 C.2    90  GLN90       0.2287
     20  O        -12.5200    3.9500   12.3350 O.2    90  GLN90      -0.2864
     21  CB       -10.8960    5.3660    9.7490 C.3    90  GLN90       0.0394
     22  CG        -9.7460    5.3360   10.7740 C.3    90  GLN90       0.0908
     23  CD        -9.1170    3.9560   10.9230 C.2    90  GLN90       0.2608
     24  OE1       -9.7890    2.9940   11.2780 O.2    90  GLN90      -0.2717
     25  NE2       -7.8160    3.8590   10.6470 N.am   90  GLN90      -0.0878
     26  N        -11.0410   -0.3610   10.8280 N.3    92  HIS92      -0.1241
     27  CA       -10.1680   -1.3230   10.1780 C.3    92  HIS92       0.1621
     28  C        -10.2440   -2.5820   11.0120 C.2    92  HIS92       0.2264
     29  O        -10.9200   -2.6010   12.0420 O.2    92  HIS92      -0.2867
     30  CB        -8.7230   -0.8130   10.1750 C.3    92  HIS92       0.0745
     31  CG        -8.1920   -0.5230   11.5450 C.ar   92  HIS92       0.0817
     32  ND1       -8.4620    0.6510   12.2140 N.ar   92  HIS92      -0.2268
     33  CD2       -7.4560   -1.2800   12.3950 C.ar   92  HIS92       0.1154
     34  CE1       -7.9150    0.6050   13.4170 C.ar   92  HIS92       0.1986
     35  NE2       -7.2980   -0.5570   13.5500 N.ar   92  HIS92      -0.2212
     36  N         -8.0300   -6.4470   12.3510 N.3    94  HIS94      -0.1241
     37  CA        -6.7960   -7.1580   12.6600 C.3    94  HIS94       0.1621
     38  C         -7.2200   -8.6250   12.5800 C.2    94  HIS94       0.2264
     39  O         -8.2140   -9.0120   13.1910 O.2    94  HIS94      -0.2867
     40  CB        -6.3260   -6.8160   14.0720 C.3    94  HIS94       0.0745
     41  CG        -5.9730   -5.3740   14.2510 C.ar   94  HIS94       0.0817
     42  ND1       -4.7260   -4.8690   13.9510 N.ar   94  HIS94      -0.2268
     43  CD2       -6.7130   -4.3230   14.6730 C.ar   94  HIS94       0.1154
     44  CE1       -4.7120   -3.5700   14.1850 C.ar   94  HIS94       0.1986
     45  NE2       -5.9060   -3.2120   14.6240 N.ar   94  HIS94      -0.2212
     46  N        -11.9860   -2.4890   14.6570 N.3   117  HIS117     -0.1241
     47  CA       -11.7190   -1.2810   15.4210 C.3   117  HIS117      0.1621
     48  C        -12.3600   -0.0600   14.7750 C.2   117  HIS117      0.2264
     49  O        -11.9850    0.3420   13.6740 O.2   117  HIS117     -0.2867
     50  CB       -10.2060   -1.0660   15.5510 C.3   117  HIS117      0.0745
     51  CG        -9.5350   -2.0450   16.4640 C.ar  117  HIS117      0.0817
     52  ND1       -8.1660   -2.2070   16.5120 N.ar  117  HIS117     -0.2268
     53  CD2      -10.0470   -2.9000   17.3800 C.ar  117  HIS117      0.1154
     54  CE1       -7.8650   -3.1190   17.4190 C.ar  117  HIS117      0.1986
     55  NE2       -8.9870   -3.5550   17.9610 N.ar  117  HIS117     -0.2212
     56  N        -12.6140    3.6560   15.0890 N.3   119  VAL119     -0.1245
     57  CA       -11.8670    4.7450   15.7040 C.3   119  VAL119      0.1561
     58  C        -12.5800    6.0890   15.7500 C.2   119  VAL119      0.2260
     59  O        -13.0930    6.5600   14.7360 O.2   119  VAL119     -0.2867
     60  CB       -10.5180    4.9310   14.9760 C.3   119  VAL119      0.0252
     61  CG1       -9.6090    5.8450   15.7720 C.3   119  VAL119      0.0019
     62  CG2       -9.8660    3.5760   14.7540 C.3   119  VAL119      0.0019
     63  N         -8.3930   15.0350   14.7150 N.3   128  PHE128     -0.1227
     64  CA        -7.5910   13.8920   15.1180 C.3   128  PHE128      0.1736
     65  C         -6.2050   14.2830   15.6090 C.2   128  PHE128      0.2596
     66  O         -5.8000   13.8960   16.7050 O.2   128  PHE128     -0.2718
     67  CB        -7.4380   12.8920   13.9720 C.3   128  PHE128      0.0547
     68  CG        -6.7910   11.6090   14.3960 C.ar  128  PHE128     -0.0202
     69  CD1       -7.5500   10.5920   14.9630 C.ar  128  PHE128     -0.0042
     70  CD2       -5.4140   11.4400   14.2920 C.ar  128  PHE128     -0.0042
     71  CE1       -6.9510    9.4240   15.4240 C.ar  128  PHE128     -0.0003
     72  CE2       -4.8010   10.2740   14.7500 C.ar  128  PHE128     -0.0003
     73  CZ        -5.5730    9.2640   15.3190 C.ar  128  PHE128     -0.0000
     74  N         -5.4850   15.0410   14.7860 N.am  129  GLY129     -0.1957
     75  CA        -4.1360   15.4620   15.1260 C.3   129  GLY129      0.1869
     76  C         -3.9740   15.9870   16.5370 C.2   129  GLY129      0.2309
     77  O         -3.0990   15.5440   17.2770 O.2   129  GLY129     -0.2863
     78  N        -11.7870    3.9410   20.9110 N.3   140  VAL140     -0.1245
     79  CA       -11.9110    2.9010   19.9030 C.3   140  VAL140      0.1561
     80  C        -12.8720    1.8250   20.3870 C.2   140  VAL140      0.2260
     81  O        -12.7190    1.2780   21.4890 O.2   140  VAL140     -0.2867
     82  CB       -10.5530    2.2350   19.5860 C.3   140  VAL140      0.0252
     83  CG1      -10.7230    1.2320   18.4440 C.3   140  VAL140      0.0019
     84  CG2       -9.5340    3.2890   19.2070 C.3   140  VAL140      0.0019
     85  N         -2.9250    3.1760   21.0660 N.3   195  LEU195     -0.1231
     86  CA        -3.1210    2.7180   19.7000 C.3   195  LEU195      0.1693
     87  C         -2.3380    1.4060   19.7050 C.2   195  LEU195      0.2593
     88  O         -1.3410    1.2870   20.4250 O.2   195  LEU195     -0.2718
     89  CB        -2.4910    3.7030   18.7080 C.3   195  LEU195      0.0284
     90  CG        -2.9880    5.1540   18.7240 C.3   195  LEU195      0.0019
     91  CD1       -2.1740    5.9860   17.7460 C.3   195  LEU195      0.0001
     92  CD2       -4.4630    5.1960   18.3680 C.3   195  LEU195      0.0001
     93  N         -2.7680    0.4240   18.9190 N.am  196  THR196     -0.1939
     94  CA        -2.0700   -0.8580   18.9040 C.3   196  THR196      0.2028
     95  C         -1.0040   -0.9800   17.8180 C.2   196  THR196      0.2643
     96  O         -0.4120   -2.0420   17.6410 O.2   196  THR196     -0.2714
     97  CB        -3.0550   -2.0290   18.7660 C.3   196  THR196      0.1808
     98  OG1       -3.7720   -1.9130   17.5320 O.3   196  THR196     -0.2208
     99  CG2       -4.0350   -2.0280   19.9340 C.3   196  THR196      0.0379
    100  N         -0.7720    0.1060   17.0900 N.am  197  THR197     -0.1937
    101  CA         0.2520    0.1250   16.0500 C.3   197  THR197      0.2013
    102  C          1.0610    1.3860   16.2850 C.2   197  THR197      0.2484
    103  O          0.5940    2.3170   16.9450 O.2   197  THR197     -0.2729
    104  CB        -0.3400    0.2480   14.6240 C.3   197  THR197      0.1807
    105  OG1       -0.8580    1.5740   14.4350 O.3   197  THR197     -0.2208
    106  CG2       -1.4510   -0.7590   14.4060 C.3   197  THR197      0.0379
    107  N          2.2970    1.4280   15.7740 N.am  198  PRO198     -0.2715
    108  CA         3.0630    2.6570   15.9890 C.3   198  PRO198      0.1521
    109  C          2.1990    3.7770   15.4180 C.2   198  PRO198      0.2440
    110  O          1.4340    3.5460   14.4800 O.2   198  PRO198     -0.2731
    111  CB         4.3170    2.4130   15.1670 C.3   198  PRO198      0.0310
    112  CG         4.5370    0.9280   15.3620 C.3   198  PRO198      0.0237
    113  CD         3.1340    0.3730   15.1740 C.3   198  PRO198      0.0939
    114  N          2.3060    5.0020   15.9600 N.am  199  PRO199     -0.2727
    115  CA         3.1630    5.4530   17.0620 C.3   199  PRO199      0.1402
    116  C          2.7860    4.9530   18.4660 C.2   199  PRO199      0.2269
    117  O          3.3970    5.3600   19.4550 O.2   199  PRO199     -0.2865
    118  CB         3.0890    6.9740   16.9430 C.3   199  PRO199      0.0296
    119  CG         1.6960    7.1930   16.4760 C.3   199  PRO199      0.0237
    120  CD         1.5320    6.1320   15.4100 C.3   199  PRO199      0.0939
    121  N        -10.4230    2.5180   25.5520 N.3   206  TRP206     -0.1241
    122  CA       -10.9200    1.3500   24.8370 C.3   206  TRP206      0.1605
    123  C        -12.2590    0.8890   25.3680 C.2   206  TRP206      0.2264
    124  O        -12.4940    0.8620   26.5790 O.2   206  TRP206     -0.2867
    125  CB        -9.9360    0.1710   24.9160 C.3   206  TRP206      0.0550
    126  CG        -8.8160    0.2520   23.9340 C.ar  206  TRP206      0.0003
    127  CD1       -7.5920    0.8200   24.1300 C.ar  206  TRP206      0.0946
    128  CD2       -8.8360   -0.2060   22.5770 C.ar  206  TRP206      0.0152
    129  NE1       -6.8480    0.7470   22.9760 N.ar  206  TRP206     -0.2442
    130  CE2       -7.5890    0.1200   22.0080 C.ar  206  TRP206      0.0810
    131  CE3       -9.7910   -0.8600   21.7860 C.ar  206  TRP206      0.0012
    132  CZ2       -7.2660   -0.1860   20.6820 C.ar  206  TRP206      0.0191
    133  CZ3       -9.4710   -1.1650   20.4670 C.ar  206  TRP206      0.0001
    134  CH2       -8.2180   -0.8280   19.9300 C.ar  206  TRP206      0.0015
@<TRIPOS>BOND
     1     4     3    2
     2     3     2    1
     3     1     2    1
     4     2     5    1
     5     5     6    1
     6     6     7    2
     7     6     8   am
     8    12    11    2
     9    21    18    1
    10    21    22    1
    11    30    27    1
    12    30    31    1
    13    27    26    1
    14    27    28    1
    15    18    19    1
    16    18    17    1
    17    11    17   am
    18    11    10    1
    19    25    23   am
    20    22    23    1
    21    23    24    2
    22    14    16    1
    23    14    13    1
    24    28    29    2
    25    19    20    2
    26    31    32   ar
    27    31    33   ar
    28    10    13    1
    29    10     9    1
    30    13    15    1
    31    32    34   ar
    32    36    37    1
    33    33    35   ar
    34    38    37    1
    35    38    39    2
    36    37    40    1
    37    34    35   ar
    38    49    48    2
    39    42    44   ar
    40    42    41   ar
    41    67    68    1
    42    67    64    1
    43    40    41    1
    44    44    45   ar
    45    41    43   ar
    46    70    68   ar
    47    70    72   ar
    48    68    69   ar
    49   106   104    1
    50   105   104    1
    51   110   109    2
    52    45    43   ar
    53   104   101    1
    54    46    47    1
    55    63    64    1
    56    59    58    2
    57    72    73   ar
    58    62    60    1
    59    48    47    1
    60    74    75    1
    61    74    65   am
    62    69    71   ar
    63    60    57    1
    64    60    61    1
    65    56    57    1
    66    64    65    1
    67    75    76    1
    68   111   112    1
    69   111   108    1
    70   113   112    1
    71   113   107    1
    72    73    71   ar
    73   120   114    1
    74   120   119    1
    75   109   114   am
    76   109   108    1
    77    47    50    1
    78    50    51    1
    79    65    66    2
    80    57    58    1
    81   107   108    1
    82   107   102   am
    83   114   115    1
    84   101   102    1
    85   101   100    1
    86   102   103    2
    87    51    52   ar
    88    51    53   ar
    89   119   118    1
    90    52    54   ar
    91    76    77    2
    92   118   115    1
    93   115   116    1
    94   100    95   am
    95    53    55   ar
    96    54    55   ar
    97    98    97    1
    98    96    95    2
    99    91    90    1
   100    95    94    1
   101    92    90    1
   102    83    82    1
   103   116   117    2
   104    89    90    1
   105    89    86    1
   106    97    94    1
   107    97    99    1
   108    94    93    1
   109    93    87   am
   110    84    82    1
   111    82    79    1
   112    86    87    1
   113    86    85    1
   114    87    88    2
   115    79    80    1
   116    79    78    1
   117   134   133   ar
   118   134   132   ar
   119    80    81    2
   120   133   131   ar
   121   132   130   ar
   122   131   128   ar
   123   130   128   ar
   124   130   129   ar
   125   128   126   ar
   126   129   127   ar
   127   126   127   ar
   128   126   125    1
   129   122   125    1
   130   122   123    1
   131   122   121    1
   132   123   124    2
