@<TRIPOS>MOLECULE
tmp/1zeaB00.pdb
 134 137 0 0 0
SMALL
GASTEIGER

@<TRIPOS>ATOM
      1  N         33.9520   60.6990   90.6660 N.3    30  THR30      -0.1203
      2  CA        35.3590   61.0490   90.4930 C.3    30  THR30       0.1994
      3  C         36.3200   59.9740   90.9540 C.2    30  THR30       0.2619
      4  O         37.5250   60.2040   90.9190 O.2    30  THR30      -0.2717
      5  CB        35.6900   62.3340   91.2540 C.3    30  THR30       0.1784
      6  OG1       35.3360   62.1530   92.6300 O.3    30  THR30      -0.2211
      7  CG2       34.9140   63.5140   90.7150 C.3    30  THR30       0.0376
      8  N         35.8260   58.8120   91.3880 N.am   31  THR31      -0.1938
      9  CA        36.7550   57.7660   91.8460 C.3    31  THR31       0.2028
     10  C         37.0540   56.6690   90.8310 C.2    31  THR31       0.2642
     11  O         37.8210   55.7400   91.1350 O.2    31  THR31      -0.2714
     12  CB        36.2680   57.0370   93.1280 C.3    31  THR31       0.1808
     13  OG1       34.9720   56.4590   92.8990 O.3    31  THR31      -0.2208
     14  CG2       36.1850   58.0100   94.3110 C.3    31  THR31       0.0379
     15  N         36.4350   56.7370   89.6540 N.am   32  TYR32      -0.1959
     16  CA        36.7090   55.7270   88.6250 C.3    32  TYR32       0.1771
     17  C         36.8520   56.4170   87.2750 C.2    32  TYR32       0.2620
     18  O         36.0440   57.2910   86.9480 O.2    32  TYR32      -0.2715
     19  CB        35.5470   54.7450   88.4570 C.3    32  TYR32       0.0574
     20  CG        35.4700   53.6220   89.4700 C.ar   32  TYR32      -0.0198
     21  CD1       35.1490   53.8780   90.7970 C.ar   32  TYR32      -0.0009
     22  CD2       35.6680   52.2950   89.0680 C.ar   32  TYR32      -0.0009
     23  CE1       35.0140   52.8230   91.7240 C.ar   32  TYR32       0.0417
     24  CE2       35.5450   51.2230   89.9800 C.ar   32  TYR32       0.0417
     25  CZ        35.2140   51.5070   91.2980 C.ar   32  TYR32       0.1957
     26  OH        35.0820   50.4590   92.1580 O.3    32  TYR32      -0.2866
     27  N         37.8700   56.0200   86.5050 N.am   33  GLY33      -0.1954
     28  CA        38.0440   56.5630   85.1660 C.3    33  GLY33       0.1869
     29  C         36.8720   56.0880   84.3120 C.2    33  GLY33       0.2309
     30  O         36.3080   55.0080   84.5750 O.2    33  GLY33      -0.2863
     31  N         35.5760   55.1350   80.4880 N.3    35  SER35      -0.1217
     32  CA        35.9450   54.8530   79.0970 C.3    35  SER35       0.1889
     33  C         34.7040   54.9460   78.1980 C.2    35  SER35       0.2288
     34  O         33.5710   54.8470   78.6720 O.2    35  SER35      -0.2866
     35  CB        36.4780   53.4260   78.9470 C.3    35  SER35       0.2089
     36  OG        37.7740   53.2670   79.4940 O.3    35  SER35      -0.2183
     37  N         37.5100   50.4980   71.6070 N.3    47  TRP47      -0.1241
     38  CA        37.7170   51.3980   72.7370 C.3    47  TRP47       0.1605
     39  C         38.1220   52.7390   72.1590 C.2    47  TRP47       0.2264
     40  O         39.0860   52.8250   71.4200 O.2    47  TRP47      -0.2867
     41  CB        38.8270   50.8320   73.6260 C.3    47  TRP47       0.0550
     42  CG        39.1010   51.6380   74.8270 C.ar   47  TRP47       0.0003
     43  CD1       38.4000   51.6390   76.0020 C.ar   47  TRP47       0.0946
     44  CD2       40.2230   52.4960   75.0220 C.ar   47  TRP47       0.0152
     45  NE1       39.0290   52.4450   76.9340 N.ar   47  TRP47      -0.2442
     46  CE2       40.1560   52.9810   76.3570 C.ar   47  TRP47       0.0810
     47  CE3       41.2860   52.9010   74.2020 C.ar   47  TRP47       0.0012
     48  CZ2       41.1260   53.8590   76.8940 C.ar   47  TRP47       0.0191
     49  CZ3       42.2370   53.7640   74.7190 C.ar   47  TRP47       0.0001
     50  CH2       42.1550   54.2420   76.0660 C.ar   47  TRP47       0.0015
     51  N         39.3550   57.3800   77.1180 N.3    50  TRP50      -0.1241
     52  CA        38.7600   57.4820   78.4460 C.3    50  TRP50       0.1605
     53  C         38.9970   58.8460   79.0130 C.2    50  TRP50       0.2264
     54  O         39.7470   59.6420   78.4370 O.2    50  TRP50      -0.2867
     55  CB        39.3710   56.4320   79.4050 C.3    50  TRP50       0.0550
     56  CG        40.8180   56.6840   79.8110 C.ar   50  TRP50       0.0003
     57  CD1       41.9440   56.5710   79.0240 C.ar   50  TRP50       0.0946
     58  CD2       41.2750   57.0160   81.1180 C.ar   50  TRP50       0.0152
     59  NE1       43.0710   56.8090   79.7850 N.ar   50  TRP50      -0.2442
     60  CE2       42.6850   57.0850   81.0710 C.ar   50  TRP50       0.0810
     61  CE3       40.6240   57.2600   82.3360 C.ar   50  TRP50       0.0012
     62  CZ2       43.4540   57.3880   82.2040 C.ar   50  TRP50       0.0191
     63  CZ3       41.3840   57.5610   83.4620 C.ar   50  TRP50       0.0001
     64  CH2       42.7900   57.6210   83.3860 C.ar   50  TRP50       0.0015
     65  N         39.8620   60.7960   82.7680 N.3    52  ASN52      -0.1225
     66  CA        40.1440   60.6920   84.1950 C.3    52  ASN52       0.1785
     67  C         39.1240   61.6320   84.8750 C.2    52  ASN52       0.2598
     68  O         39.1000   62.8530   84.6370 O.2    52  ASN52      -0.2718
     69  CB        41.5990   61.1080   84.4910 C.3    52  ASN52       0.1169
     70  CG        41.9080   61.0230   85.9600 C.2    52  ASN52       0.2627
     71  OD1       41.1260   61.5140   86.7570 O.2    52  ASN52      -0.2716
     72  ND2       43.0490   60.3940   86.3390 N.am   52  ASN52      -0.0877
     73  N         38.2690   61.0500   85.7100 N.am   53  THR53      -0.1939
     74  CA        37.1890   61.8230   86.3340 C.3    53  THR53       0.2028
     75  C         37.5990   62.6780   87.5130 C.2    53  THR53       0.2642
     76  O         36.7990   63.4530   88.0140 O.2    53  THR53      -0.2714
     77  CB        36.0710   60.8810   86.7750 C.3    53  THR53       0.1808
     78  OG1       36.6440   59.8590   87.6190 O.3    53  THR53      -0.2208
     79  CG2       35.4250   60.2320   85.5250 C.3    53  THR53       0.0379
     80  N         38.8370   62.5230   87.9600 N.am   54  TYR54      -0.1973
     81  CA        39.3500   63.3010   89.0780 C.3    54  TYR54       0.1639
     82  C         40.0940   64.5100   88.5160 C.2    54  TYR54       0.2290
     83  O         39.8960   65.6400   88.9430 O.2    54  TYR54      -0.2864
     84  CB        40.3100   62.4430   89.9160 C.3    54  TYR54       0.0560
     85  CG        40.9650   63.2180   91.0160 C.ar   54  TYR54      -0.0198
     86  CD1       40.1980   63.8210   92.0060 C.ar   54  TYR54      -0.0009
     87  CD2       42.3390   63.4410   91.0160 C.ar   54  TYR54      -0.0009
     88  CE1       40.7750   64.6430   92.9580 C.ar   54  TYR54       0.0417
     89  CE2       42.9330   64.2630   91.9700 C.ar   54  TYR54       0.0417
     90  CZ        42.1380   64.8660   92.9290 C.ar   54  TYR54       0.1957
     91  OH        42.6800   65.7510   93.8270 O.3    54  TYR54      -0.2866
     92  N         36.1610   52.0600   84.8930 N.3    99  ARG99      -0.1231
     93  CA        37.2240   51.0730   84.9880 C.3    99  ARG99       0.1694
     94  C         38.2150   51.3190   86.1140 C.2    99  ARG99       0.2593
     95  O         38.7640   52.4090   86.1970 O.2    99  ARG99      -0.2718
     96  CB        38.0200   51.0600   83.6560 C.3    99  ARG99       0.0321
     97  CG        39.2010   50.0650   83.6310 C.3    99  ARG99       0.0489
     98  CD        39.9500   50.0530   82.2760 C.3    99  ARG99       0.2205
     99  NE        40.9350   48.9720   82.2620 N.pl3  99  ARG99      -0.0865
    100  CZ        40.6380   47.6830   82.0950 C.cat  99  ARG99       0.5346
    101  NH1       39.3770   47.2800   81.8780 N.pl3  99  ARG99       0.1354
    102  NH2       41.5800   46.7710   82.2610 N.pl3  99  ARG99       0.1354
    103  N         38.4130   50.3090   86.9640 N.am  100  SER100     -0.1938
    104  CA        39.4510   50.3410   88.0080 C.3   100  SER100      0.2055
    105  C         40.5140   49.4080   87.4000 C.2   100  SER100      0.2643
    106  O         41.4550   49.8950   86.8060 O.2   100  SER100     -0.2714
    107  CB        38.9490   49.8040   89.3540 C.3   100  SER100      0.2130
    108  OG        38.1560   48.6360   89.2090 O.3   100  SER100     -0.2179
    109  N         40.3720   48.0870   87.5590 N.am  101  TRP101     -0.1959
    110  CA        41.2960   47.1240   86.9400 C.3   101  TRP101      0.1771
    111  C         40.4730   46.2350   85.9890 C.2   101  TRP101      0.2619
    112  O         40.9350   45.1820   85.5350 O.2   101  TRP101     -0.2715
    113  CB        41.9980   46.2740   88.0200 C.3   101  TRP101      0.0590
    114  CG        42.7880   47.1250   88.9790 C.ar  101  TRP101      0.0006
    115  CD1       44.0430   47.6290   88.7970 C.ar  101  TRP101      0.0946
    116  CD2       42.3150   47.6620   90.2130 C.ar  101  TRP101      0.0152
    117  NE1       44.3870   48.4630   89.8550 N.ar  101  TRP101     -0.2442
    118  CE2       43.3370   48.4960   90.7340 C.ar  101  TRP101      0.0810
    119  CE3       41.1140   47.5250   90.9340 C.ar  101  TRP101      0.0012
    120  CZ2       43.1920   49.1870   91.9340 C.ar  101  TRP101      0.0191
    121  CZ3       40.9740   48.2160   92.1310 C.ar  101  TRP101      0.0001
    122  CH2       42.0100   49.0380   92.6180 C.ar  101  TRP101      0.0015
    123  N         39.2770   46.7160   85.6520 N.am  102  TYR102     -0.1974
    124  CA        38.3350   45.9920   84.7870 C.3   102  TYR102      0.1639
    125  C         37.0870   46.8760   84.6220 C.2   102  TYR102      0.2290
    126  O         36.9250   47.8530   85.3540 O.2   102  TYR102     -0.2864
    127  CB        37.9410   44.6590   85.4570 C.3   102  TYR102      0.0560
    128  CG        37.7370   44.7690   86.9620 C.ar  102  TYR102     -0.0198
    129  CD1       36.6470   45.4470   87.5000 C.ar  102  TYR102     -0.0009
    130  CD2       38.6610   44.2210   87.8460 C.ar  102  TYR102     -0.0009
    131  CE1       36.4910   45.5820   88.8870 C.ar  102  TYR102      0.0417
    132  CE2       38.4940   44.3410   89.2200 C.ar  102  TYR102      0.0417
    133  CZ        37.4210   45.0210   89.7290 C.ar  102  TYR102      0.1957
    134  OH        37.2800   45.1390   91.0980 O.3   102  TYR102     -0.2866
@<TRIPOS>BOND
     1    40    39    2
     2    37    38    1
     3    39    38    1
     4    38    41    1
     5    41    42    1
     6    47    49   ar
     7    47    44   ar
     8    49    50   ar
     9    42    44   ar
    10    42    43   ar
    11    44    46   ar
    12    43    45   ar
    13    50    48   ar
    14    46    48   ar
    15    46    45   ar
    16    51    52    1
    17    33    34    2
    18    33    32    1
    19    54    53    2
    20    52    53    1
    21    52    55    1
    22    35    32    1
    23    35    36    1
    24    57    59   ar
    25    57    56   ar
    26    32    31    1
    27    55    56    1
    28    59    60   ar
    29    56    58   ar
    30    60    58   ar
    31    60    62   ar
    32    58    61   ar
    33   101   100    1
    34   100   102    1
    35   100    99    2
    36    62    64   ar
    37    99    98    1
    38    98    97    1
    39    61    63   ar
    40    65    66    1
    41    64    63   ar
    42    97    96    1
    43    96    93    1
    44    66    69    1
    45    66    67    1
    46    29    30    2
    47    29    28    1
    48    69    70    1
    49   125   124    1
    50   125   126    2
    51    68    67    2
    52   124   127    1
    53   124   123    1
    54    67    73   am
    55    92    93    1
    56    93    94    1
    57    28    27    1
    58   127   128    1
    59    79    77    1
    60   112   111    2
    61   123   111   am
    62    73    74    1
    63    70    72   am
    64    70    71    2
    65   111   110    1
    66    94    95    2
    67    94   103   am
    68    74    77    1
    69    74    75    1
    70    27    17   am
    71    77    78    1
    72   106   105    2
    73   110   109    1
    74   110   113    1
    75    18    17    2
    76   128   129   ar
    77   128   130   ar
    78   103   104    1
    79    17    16    1
    80   105   109   am
    81   105   104    1
    82   129   131   ar
    83    75    80   am
    84    75    76    2
    85   130   132   ar
    86    80    81    1
    87   104   107    1
    88   113   114    1
    89    19    16    1
    90    19    20    1
    91    82    83    2
    92    82    81    1
    93    16    15    1
    94   115   114   ar
    95   115   117   ar
    96   131   133   ar
    97   114   116   ar
    98    22    20   ar
    99    22    24   ar
   100    81    84    1
   101   108   107    1
   102   132   133   ar
   103    20    21   ar
   104    15    10   am
   105   133   134    1
   106   117   118   ar
   107    84    85    1
   108    24    25   ar
   109   116   118   ar
   110   116   119   ar
   111     2     1    1
   112     2     3    1
   113     2     5    1
   114     7     5    1
   115   118   120   ar
   116    21    23   ar
   117    10    11    2
   118    10     9    1
   119     4     3    2
   120   119   121   ar
   121     3     8   am
   122    87    85   ar
   123    87    89   ar
   124    85    86   ar
   125     5     6    1
   126    25    23   ar
   127    25    26    1
   128     8     9    1
   129     9    12    1
   130   120   122   ar
   131    89    90   ar
   132    86    88   ar
   133   121   122   ar
   134    13    12    1
   135    90    88   ar
   136    90    91    1
   137    12    14    1
