@<TRIPOS>MOLECULE
tmp/1zedA02.pdb
 92 84 0 0 0
SMALL
GASTEIGER

@<TRIPOS>ATOM
      1  N         53.6700   21.6510   -8.5060 N.3   250  ARG250     -0.1245
      2  CA        54.3810   22.7090   -7.8200 C.3   250  ARG250      0.1563
      3  C         55.0360   23.6800   -8.7850 C.2   250  ARG250      0.2260
      4  O         55.0260   24.8950   -8.5580 O.2   250  ARG250     -0.2867
      5  CB        55.4470   22.0760   -6.9430 C.3   250  ARG250      0.0307
      6  CG        56.2390   23.0370   -6.1030 C.3   250  ARG250      0.0489
      7  CD        57.0950   22.3150   -5.1190 C.3   250  ARG250      0.2205
      8  NE        57.9040   23.1860   -4.2940 N.pl3 250  ARG250     -0.0865
      9  CZ        59.1140   23.6280   -4.6200 C.cat 250  ARG250      0.5346
     10  NH1       59.6570   23.3320   -5.7990 N.pl3 250  ARG250      0.1354
     11  NH2       59.7630   24.3960   -3.7740 N.pl3 250  ARG250      0.1354
     12  N         52.4510   25.9320  -10.1490 N.3   253  LEU253     -0.1231
     13  CA        52.0180   26.8290   -9.0740 C.3   253  LEU253      0.1693
     14  C         52.9720   28.0100   -8.9250 C.2   253  LEU253      0.2591
     15  O         52.5460   29.1640   -8.8230 O.2   253  LEU253     -0.2718
     16  CB        51.9430   26.0760   -7.7350 C.3   253  LEU253      0.0284
     17  CG        51.6840   26.9980   -6.5390 C.3   253  LEU253      0.0019
     18  CD1       50.3340   27.6780   -6.6930 C.3   253  LEU253      0.0001
     19  CD2       51.7840   26.2330   -5.2350 C.3   253  LEU253      0.0001
     20  N         54.2690   27.7030   -8.8810 N.am  254  MET254     -0.1979
     21  CA        55.2970   28.7280   -8.7520 C.3   254  MET254      0.1605
     22  C         55.1840   29.7370   -9.8800 C.2   254  MET254      0.2287
     23  O         55.1930   30.9420   -9.6490 O.2   254  MET254     -0.2864
     24  CB        56.6800   28.0770   -8.7990 C.3   254  MET254      0.0413
     25  CG        56.9940   27.2260   -7.5910 C.3   254  MET254      0.0598
     26  SD        58.6830   26.5790   -7.5550 S.3   254  MET254     -0.1393
     27  CE        58.7580   25.5310   -8.9710 C.3   254  MET254      0.0692
     28  N         52.0860   31.9180   -9.4840 N.3   257  SER257     -0.1217
     29  CA        52.0860   32.8330   -8.3380 C.3   257  SER257      0.1889
     30  C         52.8800   34.1090   -8.6090 C.2   257  SER257      0.2288
     31  O         52.6580   35.1180   -7.9510 O.2   257  SER257     -0.2866
     32  CB        52.6370   32.1310   -7.0900 C.3   257  SER257      0.2089
     33  OG        54.0420   31.9200   -7.1770 O.3   257  SER257     -0.2183
     34  N         54.4650   22.3580   -0.3100 N.3   287  SER287     -0.1217
     35  CA        54.1290   22.2220    1.1010 C.3   287  SER287      0.1889
     36  C         53.0320   23.1980    1.4580 C.2   287  SER287      0.2288
     37  O         52.7320   24.1350    0.7070 O.2   287  SER287     -0.2866
     38  CB        55.3280   22.5290    1.9840 C.3   287  SER287      0.2089
     39  OG        55.6210   23.9060    1.9270 O.3   287  SER287     -0.2183
     40  N         53.2630   25.5220    3.6270 N.3   289  MET289     -0.1230
     41  CA        53.9090   26.8140    3.6870 C.3   289  MET289      0.1702
     42  C         54.0470   27.4270    2.2870 C.2   289  MET289      0.2592
     43  O         53.7930   28.6210    2.0890 O.2   289  MET289     -0.2718
     44  CB        55.2830   26.6820    4.3250 C.3   289  MET289      0.0401
     45  CG        55.9970   28.0080    4.4320 C.3   289  MET289      0.0596
     46  SD        57.5490   27.9020    5.3410 S.3   289  MET289     -0.1393
     47  CE        58.5290   26.8180    4.3030 C.3   289  MET289      0.0692
     48  N         54.4540   26.6210    1.3120 N.am  290  GLU290     -0.1979
     49  CA        54.6070   27.1000   -0.0600 C.3   290  GLU290      0.1602
     50  C         53.2700   27.5190   -0.6580 C.2   290  GLU290      0.2287
     51  O         53.1630   28.5670   -1.2980 O.2   290  GLU290     -0.2864
     52  CB        55.2680   26.0220   -0.9090 C.3   290  GLU290      0.0415
     53  CG        56.6770   25.6950   -0.4360 C.3   290  GLU290      0.1163
     54  CD        57.3020   24.5180   -1.1630 C.2   290  GLU290      0.3649
     55  OE1       56.5710   23.7220   -1.7650 O.co2 290  GLU290     -0.2457
     56  OE2       58.5380   24.3740   -1.1210 O.co2 290  GLU290     -0.2457
     57  N         52.3100   30.9410    0.8280 N.3   293  GLU293     -0.1231
     58  CA        53.0400   32.0110    0.1570 C.3   293  GLU293      0.1699
     59  C         52.4910   32.2900   -1.2420 C.2   293  GLU293      0.2592
     60  O         52.3050   33.4390   -1.6180 O.2   293  GLU293     -0.2718
     61  CB        54.5210   31.6890    0.0850 C.3   293  GLU293      0.0402
     62  CG        55.3370   32.7580   -0.6050 C.3   293  GLU293      0.1161
     63  CD        56.7830   32.7610   -0.1830 C.2   293  GLU293      0.3649
     64  OE1       57.4950   33.6730   -0.6380 O.co2 293  GLU293     -0.2457
     65  OE2       57.2060   31.8740    0.5910 O.co2 293  GLU293     -0.2457
     66  N         52.2330   31.2340   -2.0110 N.am  294  ALA294     -0.1980
     67  CA        51.6210   31.4050   -3.3280 C.3   294  ALA294      0.1597
     68  C         50.3050   32.1630   -3.2230 C.2   294  ALA294      0.2287
     69  O         50.0530   33.0740   -3.9970 O.2   294  ALA294     -0.2864
     70  CB        51.4130   30.0800   -4.0100 C.3   294  ALA294      0.0319
     71  N         51.0170   35.8580   -2.4410 N.3   297  ARG297     -0.1245
     72  CA        51.5000   36.5760   -3.6350 C.3   297  ARG297      0.1563
     73  C         50.3570   37.1760   -4.4390 C.2   297  ARG297      0.2260
     74  O         50.3890   38.3520   -4.7940 O.2   297  ARG297     -0.2867
     75  CB        52.3310   35.6490   -4.5040 C.3   297  ARG297      0.0307
     76  CG        53.6830   35.4110   -3.9460 C.3   297  ARG297      0.0489
     77  CD        54.4280   34.3200   -4.6510 C.3   297  ARG297      0.2205
     78  NE        55.7930   34.2320   -4.1680 N.pl3 297  ARG297     -0.0865
     79  CZ        56.6580   33.3250   -4.5650 C.cat 297  ARG297      0.5346
     80  NH1       57.8750   33.3250   -4.0570 N.pl3 297  ARG297      0.1354
     81  NH2       56.3220   32.4100   -5.4560 N.pl3 297  ARG297      0.1354
     82  N         55.5790   31.8260    8.1500 N.3   340  ARG340     -0.1245
     83  CA        55.8140   32.4020    6.8320 C.3   340  ARG340      0.1563
     84  C         54.8240   33.5190    6.5010 C.2   340  ARG340      0.2260
     85  O         55.2060   34.5830    6.0030 O.2   340  ARG340     -0.2867
     86  CB        55.7810   31.3230    5.7530 C.3   340  ARG340      0.0307
     87  CG        56.1760   31.8330    4.3830 C.3   340  ARG340      0.0489
     88  CD        57.4910   32.5800    4.4160 C.3   340  ARG340      0.2205
     89  NE        57.8710   33.1310    3.1220 N.pl3 340  ARG340     -0.0865
     90  CZ        58.7570   34.1070    2.9700 C.cat 340  ARG340      0.5346
     91  NH1       59.3420   34.6620    4.0180 N.pl3 340  ARG340      0.1354
     92  NH2       59.0400   34.5600    1.7600 N.pl3 340  ARG340      0.1354
@<TRIPOS>BOND
     1    12    13    1
     2    22    23    2
     3    22    21    1
     4    28    29    1
     5    13    14    1
     6    13    16    1
     7    27    26    1
     8    14    20   am
     9    14    15    2
    10    20    21    1
    11    24    21    1
    12    24    25    1
    13     3     4    2
    14     3     2    1
    15    30    29    1
    16    30    31    2
    17     1     2    1
    18    29    32    1
    19     2     5    1
    20    16    17    1
    21    25    26    1
    22    33    32    1
    23     5     6    1
    24    18    17    1
    25    17    19    1
    26     6     7    1
    27    10     9    1
    28    81    79    1
    29     7     8    1
    30    74    73    2
    31    77    78    1
    32    77    76    1
    33     9     8    2
    34     9    11    1
    35    79    78    2
    36    79    80    1
    37    75    76    1
    38    75    72    1
    39    73    72    1
    40    70    67    1
    41    69    68    2
    42    72    71    1
    43    67    68    1
    44    67    66    1
    45    66    59   am
    46    55    54   ar
    47    60    59    2
    48    51    50    2
    49    59    58    1
    50    54    56   ar
    51    54    53    1
    52    52    53    1
    53    52    49    1
    54    50    49    1
    55    64    63   ar
    56    62    63    1
    57    62    61    1
    58    34    35    1
    59    63    65   ar
    60    49    48    1
    61    61    58    1
    62    58    57    1
    63    37    36    2
    64    35    36    1
    65    35    38    1
    66    48    42   am
    67    92    90    1
    68    39    38    1
    69    43    42    2
    70    42    41    1
    71    90    89    2
    72    90    91    1
    73    89    88    1
    74    40    41    1
    75    41    44    1
    76    47    46    1
    77    44    45    1
    78    87    88    1
    79    87    86    1
    80    45    46    1
    81    86    83    1
    82    85    84    2
    83    84    83    1
    84    83    82    1
