@<TRIPOS>MOLECULE
tmp/1zefA00.pdb
 114 110 0 0 0
SMALL
GASTEIGER

@<TRIPOS>ATOM
      1  N         43.1860   21.4630   11.9800 N.3    42  ASP42      -0.1239
      2  CA        42.0750   20.6110   12.1550 C.3    42  ASP42       0.1674
      3  C         42.5160   19.5600   13.1720 C.2    42  ASP42       0.2266
      4  O         43.4320   18.8210   12.9160 O.2    42  ASP42      -0.2867
      5  CB        41.6680   19.9460   10.8610 C.3    42  ASP42       0.1410
      6  CG        40.3140   19.3740   10.9560 C.2    42  ASP42       0.3668
      7  OD1       40.0210   18.6390   11.9400 O.co2  42  ASP42      -0.2456
      8  OD2       39.4270   19.6650   10.1400 O.co2  42  ASP42      -0.2456
      9  N         32.1550   17.5980   14.9880 N.3    91  ASP91      -0.1239
     10  CA        32.8680   17.2950   13.7570 C.3    91  ASP91       0.1674
     11  C         33.3420   18.5760   13.1250 C.2    91  ASP91       0.2266
     12  O         33.0860   19.6950   13.6000 O.2    91  ASP91      -0.2867
     13  CB        32.0150   16.4880   12.7800 C.3    91  ASP91       0.1410
     14  CG        31.1910   17.3570   11.8870 C.2    91  ASP91       0.3668
     15  OD1       31.2740   17.1520   10.6600 O.co2  91  ASP91      -0.2456
     16  OD2       30.5030   18.3240   12.3200 O.co2  91  ASP91      -0.2456
     17  N         26.2210   18.4260   13.8560 N.3   106  PHE106     -0.1227
     18  CA        27.2290   17.4650   13.4400 C.3   106  PHE106      0.1736
     19  C         27.0170   17.0270   12.0000 C.2   106  PHE106      0.2595
     20  O         25.9310   16.5850   11.6390 O.2   106  PHE106     -0.2718
     21  CB        27.0730   16.3050   14.4030 C.3   106  PHE106      0.0547
     22  CG        28.2210   15.3570   14.4770 C.ar  106  PHE106     -0.0202
     23  CD1       28.1800   14.1420   13.8170 C.ar  106  PHE106     -0.0042
     24  CD2       29.2670   15.6020   15.3600 C.ar  106  PHE106     -0.0042
     25  CE1       29.2350   13.2280   13.9640 C.ar  106  PHE106     -0.0003
     26  CE2       30.3080   14.6890   15.5190 C.ar  106  PHE106     -0.0003
     27  CZ        30.2920   13.5260   14.8270 C.ar  106  PHE106     -0.0000
     28  N         28.0510   17.2490   11.1870 N.am  107  GLN107     -0.1979
     29  CA        28.2310   16.7520    9.8260 C.3   107  GLN107      0.1601
     30  C         27.4690   17.5470    8.8140 C.2   107  GLN107      0.2287
     31  O         27.4920   17.1820    7.6650 O.2   107  GLN107     -0.2864
     32  CB        27.9480   15.2570    9.6640 C.3   107  GLN107      0.0394
     33  CG        28.9280   14.3720   10.3280 C.3   107  GLN107      0.0908
     34  CD        28.6500   12.9240    9.9950 C.2   107  GLN107      0.2608
     35  OE1       27.6830   12.3660   10.4860 O.2   107  GLN107     -0.2717
     36  NE2       29.4260   12.3640    9.0950 N.am  107  GLN107     -0.0878
     37  N         36.4490   19.3400    1.4250 N.3   152  HIS152     -0.1241
     38  CA        36.3730   18.7440    2.7290 C.3   152  HIS152      0.1621
     39  C         35.6760   19.7250    3.6810 C.2   152  HIS152      0.2264
     40  O         35.4570   20.8890    3.3280 O.2   152  HIS152     -0.2867
     41  CB        37.7690   18.3680    3.1970 C.3   152  HIS152      0.0745
     42  CG        37.7860   17.2560    4.1810 C.ar  152  HIS152      0.0817
     43  ND1       37.8130   15.9250    3.8030 N.ar  152  HIS152     -0.2268
     44  CD2       37.8800   17.2680    5.5280 C.ar  152  HIS152      0.1154
     45  CE1       37.8280   15.1680    4.8900 C.ar  152  HIS152      0.1986
     46  NE2       37.8830   15.9590    5.9480 N.ar  152  HIS152     -0.2212
     47  N         28.1720   16.6830    4.7770 N.3   165  ARG165     -0.1245
     48  CA        29.5500   16.9330    4.4410 C.3   165  ARG165      0.1563
     49  C         30.1640   15.8400    3.5190 C.2   165  ARG165      0.2260
     50  O         31.1590   16.0830    2.8930 O.2   165  ARG165     -0.2867
     51  CB        30.3810   16.9950    5.7120 C.3   165  ARG165      0.0307
     52  CG        30.3820   15.6650    6.4250 C.3   165  ARG165      0.0489
     53  CD        31.2880   15.7440    7.6450 C.3   165  ARG165      0.2205
     54  NE        32.6640   15.7210    7.2210 N.pl3 165  ARG165     -0.0865
     55  CZ        33.7080   15.7750    8.0540 C.cat 165  ARG165      0.5346
     56  NH1       33.4960   15.9490    9.3570 N.pl3 165  ARG165      0.1354
     57  NH2       34.9320   15.7080    7.5660 N.pl3 165  ARG165      0.1354
     58  N         44.4690   16.3580   11.9260 N.3   315  ASP315     -0.1225
     59  CA        43.3110   15.6050   12.3010 C.3   315  ASP315      0.1805
     60  C         43.4590   14.1400   11.8640 C.2   315  ASP315      0.2597
     61  O         43.1900   13.2200   12.6190 O.2   315  ASP315     -0.2718
     62  CB        42.0740   16.2120   11.6320 C.3   315  ASP315      0.1424
     63  CG        40.7960   15.5150   12.0490 C.2   315  ASP315      0.3668
     64  OD1       40.1120   14.8810   11.1810 O.co2 315  ASP315     -0.2456
     65  OD2       40.3810   15.5500   13.2110 O.co2 315  ASP315     -0.2456
     66  N         43.8890   13.9690   10.6320 N.am  316  HIS316     -0.1975
     67  CA        44.0040   12.6480   10.0220 C.3   316  HIS316      0.1656
     68  C         45.0440   11.8030   10.7000 C.2   316  HIS316      0.2291
     69  O         44.8470   10.5960   10.9330 O.2   316  HIS316     -0.2864
     70  CB        44.2960   12.8260    8.5310 C.3   316  HIS316      0.0771
     71  CG        43.1430   13.4440    7.8090 C.ar  316  HIS316      0.0820
     72  ND1       43.0370   13.4820    6.4430 N.ar  316  HIS316     -0.2267
     73  CD2       42.0770   14.1290    8.2870 C.ar  316  HIS316      0.1154
     74  CE1       41.8890   14.0510    6.1100 C.ar  316  HIS316      0.1986
     75  NE2       41.2910   14.4610    7.2140 N.ar  316  HIS316     -0.2212
     76  N         43.4810   10.5760   13.8850 N.3   319  HIS319     -0.1241
     77  CA        42.4830    9.4850   13.6380 C.3   319  HIS319      0.1621
     78  C         43.1660    8.1350   13.4580 C.2   319  HIS319      0.2264
     79  O         42.6210    7.0810   13.8550 O.2   319  HIS319     -0.2867
     80  CB        41.5670    9.7290   12.4090 C.3   319  HIS319      0.0745
     81  CG        40.5680   10.7750   12.6570 C.ar  319  HIS319      0.0817
     82  ND1       39.8880   10.8260   13.8260 N.ar  319  HIS319     -0.2268
     83  CD2       40.0720   11.7710   11.8940 C.ar  319  HIS319      0.1154
     84  CE1       39.1080   11.8850   13.8410 C.ar  319  HIS319      0.1986
     85  NE2       39.2300   12.4940   12.6970 N.ar  319  HIS319     -0.2212
     86  N         38.4830   21.4770   16.8260 N.3   357  HIS357     -0.1241
     87  CA        38.1840   20.6040   17.9350 C.3   357  HIS357      0.1621
     88  C         39.5050   19.8970   18.2050 C.2   357  HIS357      0.2264
     89  O         40.4770   20.0010   17.4470 O.2   357  HIS357     -0.2867
     90  CB        37.0390   19.5860   17.5970 C.3   357  HIS357      0.0745
     91  CG        37.4340   18.7190   16.4870 C.ar  357  HIS357      0.0817
     92  ND1       37.2910   19.1040   15.1810 N.ar  357  HIS357     -0.2268
     93  CD2       38.2020   17.6230   16.4760 C.ar  357  HIS357      0.1154
     94  CE1       37.8990   18.2290   14.4020 C.ar  357  HIS357      0.1986
     95  NE2       38.4790   17.3360   15.1680 N.ar  357  HIS357     -0.2212
     96  N         39.0220    4.3230   13.7840 N.3   428  GLU428     -0.1245
     97  CA        39.5600    5.6650   13.8780 C.3   428  GLU428      0.1567
     98  C         39.4030    6.2000   15.2650 C.2   428  GLU428      0.2260
     99  O         38.3450    6.0940   15.8830 O.2   428  GLU428     -0.2867
    100  CB        38.8330    6.6130   12.9280 C.3   428  GLU428      0.0388
    101  CG        39.0050    6.2590   11.4840 C.3   428  GLU428      0.1160
    102  CD        38.4470    7.3330   10.5700 C.2   428  GLU428      0.3649
    103  OE1       39.0450    8.4070   10.4750 O.co2 428  GLU428     -0.2457
    104  OE2       37.3660    7.1180    9.9760 O.co2 428  GLU428     -0.2457
    105  N         37.5960   12.3940   17.7410 N.3   431  HIS431     -0.1241
    106  CA        37.7130   13.7550   18.2430 C.3   431  HIS431      0.1621
    107  C         37.5170   13.7740   19.7550 C.2   431  HIS431      0.2264
    108  O         36.9860   12.8280   20.3520 O.2   431  HIS431     -0.2867
    109  CB        36.6730   14.6410   17.5790 C.3   431  HIS431      0.0745
    110  CG        36.8140   14.7640   16.0840 C.ar  431  HIS431      0.0817
    111  ND1       35.8700   15.4030   15.3110 N.ar  431  HIS431     -0.2268
    112  CD2       37.7320   14.2740   15.2190 C.ar  431  HIS431      0.1154
    113  CE1       36.2370   15.3460   14.0390 C.ar  431  HIS431      0.1986
    114  NE2       37.3650   14.6690   13.9510 N.ar  431  HIS431     -0.2212
@<TRIPOS>BOND
     1    37    38    1
     2    38    41    1
     3    38    39    1
     4    50    49    2
     5    41    42    1
     6    40    39    2
     7    49    48    1
     8    43    42   ar
     9    43    45   ar
    10    42    44   ar
    11    48    47    1
    12    48    51    1
    13    45    46   ar
    14    44    46   ar
    15    51    52    1
    16    74    72   ar
    17    74    75   ar
    18    52    53    1
    19    72    71   ar
    20    75    73   ar
    21    54    53    1
    22    54    55    2
    23    57    55    1
    24    31    30    2
    25    71    73   ar
    26    71    70    1
    27    55    56    1
    28    70    67    1
    29    30    29    1
    30    36    34   am
    31    32    29    1
    32    32    33    1
    33    29    28    1
    34   104   102   ar
    35    34    33    1
    36    34    35    2
    37    67    66    1
    38    67    68    1
    39     8     6   ar
    40   103   102   ar
    41   102   101    1
    42    66    60   am
    43    15    14   ar
    44    68    69    2
    45     5     6    1
    46     5     2    1
    47     6     7   ar
    48    64    63   ar
    49    28    19   am
    50   101   100    1
    51    62    63    1
    52    62    59    1
    53    20    19    2
    54    60    59    1
    55    60    61    2
    56    14    16   ar
    57    14    13    1
    58    83    81   ar
    59    83    85   ar
    60    58    59    1
    61     1     2    1
    62    19    18    1
    63    63    65   ar
    64     2     3    1
    65    80    81    1
    66    80    77    1
    67    81    82   ar
    68    85    84   ar
    69    13    10    1
    70     4     3    2
    71   100    97    1
    72    11    12    2
    73    11    10    1
    74    18    17    1
    75    18    21    1
    76    78    77    1
    77    78    79    2
    78    77    76    1
    79    10     9    1
    80    96    97    1
    81    23    25   ar
    82    23    22   ar
    83    82    84   ar
    84    97    98    1
    85   114   113   ar
    86   114   112   ar
    87    25    27   ar
    88   113   111   ar
    89    94    95   ar
    90    94    92   ar
    91    21    22    1
    92    22    24   ar
    93    27    26   ar
    94    95    93   ar
    95    92    91   ar
    96   112   110   ar
    97    98    99    2
    98   111   110   ar
    99    24    26   ar
   100   110   109    1
   101    93    91   ar
   102    91    90    1
   103    86    87    1
   104    89    88    2
   105   109   106    1
   106    90    87    1
   107   105   106    1
   108    87    88    1
   109   106   107    1
   110   107   108    2
