@<TRIPOS>MOLECULE
tmp/1zeiE00.pdb
 71 66 0 0 0
SMALL
GASTEIGER

@<TRIPOS>ATOM
      1  N         -8.1630   17.3390   -7.8040 N.3     7  CYS7       -0.1235
      2  CA        -7.7570   17.0700   -9.1610 C.3     7  CYS7        0.1677
      3  C         -8.9840   17.2290  -10.1080 C.2     7  CYS7        0.2270
      4  O         -8.8390   17.7210  -11.2400 O.2     7  CYS7       -0.2867
      5  CB        -7.2010   15.6250   -9.1930 C.3     7  CYS7        0.0956
      6  SG        -6.7050   15.2000  -10.8770 S.3     7  CYS7       -0.0801
      7  N         -9.8230   20.6690  -11.2860 N.3    10  HIS10      -0.1226
      8  CA        -8.9460   21.2140  -12.2300 C.3    10  HIS10       0.1752
      9  C         -9.1010   20.5940  -13.6600 C.2    10  HIS10       0.2592
     10  O         -8.9180   21.1480  -14.7420 O.2    10  HIS10      -0.2718
     11  CB        -7.4580   21.0580  -11.8830 C.3    10  HIS10       0.0759
     12  CG        -7.0570   22.0200  -10.7190 C.ar   10  HIS10       0.0818
     13  ND1       -6.5840   23.2670  -10.9100 N.ar   10  HIS10      -0.2268
     14  CD2       -7.0370   21.7710   -9.3640 C.ar   10  HIS10       0.1154
     15  CE1       -6.2700   23.9230   -9.7450 C.ar   10  HIS10       0.1986
     16  NE2       -6.4870   22.9390   -8.8770 N.ar   10  HIS10      -0.2212
     17  N         -9.5660   19.2640  -13.6090 N.am   11  LEU11      -0.2033
     18  CA        -9.8060   18.6810  -14.9970 C.3    11  LEU11       0.1282
     19  C        -11.0020   19.3960  -15.5920 C.3    11  LEU11       0.2036
     20  O        -11.0190   19.4330  -16.8400 O.3    11  LEU11      -0.2185
     21  CB       -10.1490   17.1850  -14.5730 C.3    11  LEU11       0.0244
     22  CG        -8.8620   16.3200  -14.6170 C.3    11  LEU11       0.0018
     23  CD1       -9.3250   14.9160  -13.9790 C.3    11  LEU11       0.0001
     24  CD2       -8.1470   16.1140  -15.9460 C.3    11  LEU11       0.0001
     25  N         -9.7730   22.4070  -17.2850 N.3    14  ALA14      -0.1301
     26  CA        -9.1650   22.0700  -18.5340 C.3    14  ALA14       0.1247
     27  C        -10.0390   21.3980  -19.6670 C.3    14  ALA14       0.2009
     28  O         -9.8080   21.9180  -20.8070 O.3    14  ALA14      -0.2188
     29  CB        -8.0590   21.0610  -18.1450 C.3    14  ALA14       0.0233
     30  N         -6.0670   10.5650  -15.2850 N.3    38  CYS38      -0.1292
     31  CA        -5.3590   11.9180  -15.2610 C.3    38  CYS38       0.1363
     32  C         -5.1200   12.3420  -13.8080 C.3    38  CYS38       0.2019
     33  O         -4.5080   13.4950  -13.7670 O.3    38  CYS38      -0.2188
     34  CB        -6.3160   12.8940  -16.0920 C.3    38  CYS38       0.0903
     35  SG        -6.4930   12.3130  -17.8030 S.3    38  CYS38      -0.0805
     36  N         -1.1850   10.3580  -13.5650 N.3    41  SER41      -0.1202
     37  CA        -0.1170   10.9440  -14.3170 C.3    41  SER41       0.2020
     38  C         -0.6920   12.0320  -15.2760 C.2    41  SER41       0.2619
     39  O         -1.9020   12.0720  -15.4450 O.2    41  SER41      -0.2717
     40  CB         0.5760    9.7550  -15.0110 C.3    41  SER41       0.2103
     41  OG        -0.1010    9.4920  -16.1830 O.3    41  SER41      -0.2182
     42  N          0.1240   12.9680  -15.6680 N.am   42  ILE42      -0.1965
     43  CA        -0.2950   14.1230  -16.4590 C.3    42  ILE42       0.1727
     44  C         -0.8310   13.7340  -17.8890 C.2    42  ILE42       0.2616
     45  O         -0.0990   13.2270  -18.8120 O.2    42  ILE42      -0.2715
     46  CB         0.8050   15.1350  -16.6030 C.3    42  ILE42       0.0290
     47  CG1        1.2390   15.6740  -15.1780 C.3    42  ILE42       0.0022
     48  CG2        0.2740   16.3970  -17.3800 C.3    42  ILE42       0.0023
     49  CD1       -0.0810   16.2480  -14.6140 C.3    42  ILE42       0.0001
     50  N         -2.0810   14.0900  -18.0390 N.am   43  CYS43      -0.1968
     51  CA        -2.6860   13.9270  -19.3570 C.3    43  CYS43       0.1712
     52  C         -2.4830   15.1530  -20.2540 C.2    43  CYS43       0.2296
     53  O         -2.5440   16.2660  -19.6770 O.2    43  CYS43      -0.2864
     54  CB        -4.2330   13.8410  -19.1340 C.3    43  CYS43       0.0983
     55  SG        -4.6420   12.1460  -18.5530 S.3    43  CYS43      -0.0798
     56  N         -3.3830   17.8570  -23.4380 N.3    45  LEU45      -0.1245
     57  CA        -4.6350   18.4040  -23.8990 C.3    45  LEU45       0.1561
     58  C         -5.1550   17.5450  -24.9980 C.2    45  LEU45       0.2260
     59  O         -6.3780   17.4590  -25.1600 O.2    45  LEU45      -0.2867
     60  CB        -4.3720   19.9220  -24.2660 C.3    45  LEU45       0.0270
     61  CG        -4.0000   20.8000  -23.0260 C.3    45  LEU45       0.0019
     62  CD1       -4.1550   22.2760  -23.5170 C.3    45  LEU45       0.0001
     63  CD2       -4.8630   20.7290  -21.7750 C.3    45  LEU45       0.0001
     64  N         -7.2560   14.9270  -23.5290 N.3    48  LEU48      -0.1245
     65  CA        -8.5600   15.3950  -23.0190 C.3    48  LEU48       0.1561
     66  C         -9.5700   15.6360  -24.0970 C.2    48  LEU48       0.2260
     67  O        -10.8200   15.6230  -23.8550 O.2    48  LEU48      -0.2867
     68  CB        -8.0470   16.6510  -22.1990 C.3    48  LEU48       0.0270
     69  CG        -7.9690   16.6520  -20.6630 C.3    48  LEU48       0.0019
     70  CD1       -7.7430   15.4150  -19.9670 C.3    48  LEU48       0.0001
     71  CD2       -7.2430   17.8540  -20.0240 C.3    48  LEU48       0.0001
@<TRIPOS>BOND
     1    59    58    2
     2    58    57    1
     3    60    57    1
     4    60    61    1
     5    66    67    2
     6    66    65    1
     7    57    56    1
     8    64    65    1
     9    62    61    1
    10    61    63    1
    11    65    68    1
    12    68    69    1
    13    28    27    1
    14    69    71    1
    15    69    70    1
    16    52    53    2
    17    52    51    1
    18    27    26    1
    19    51    54    1
    20    51    50    1
    21    54    55    1
    22    45    44    2
    23    55    35    1
    24    26    29    1
    25    26    25    1
    26    50    44   am
    27    44    43    1
    28    35    34    1
    29    48    46    1
    30    20    19    1
    31    46    43    1
    32    46    47    1
    33    43    42    1
    34    41    40    1
    35    34    31    1
    36    24    22    1
    37    42    38   am
    38    19    18    1
    39    39    38    2
    40    30    31    1
    41    38    37    1
    42    31    32    1
    43    47    49    1
    44    40    37    1
    45    18    21    1
    46    18    17    1
    47    10     9    2
    48    22    21    1
    49    22    23    1
    50    37    36    1
    51    32    33    1
    52     9    17   am
    53     9     8    1
    54     8    11    1
    55     8     7    1
    56    11    12    1
    57     4     3    2
    58    13    12   ar
    59    13    15   ar
    60     6     5    1
    61    12    14   ar
    62     3     2    1
    63    15    16   ar
    64    14    16   ar
    65     5     2    1
    66     2     1    1
