@<TRIPOS>MOLECULE
tmp/1zejA00.pdb
 80 77 0 0 0
SMALL
GASTEIGER

@<TRIPOS>ATOM
      1  N         20.7280   46.2870   -6.2640 N.3   128  ILE128     -0.1245
      2  CA        21.9840   45.5990   -6.4190 C.3   128  ILE128      0.1561
      3  C         21.8310   44.1040   -6.7350 C.2   128  ILE128      0.2260
      4  O         20.8770   43.4390   -6.3310 O.2   128  ILE128     -0.2867
      5  CB        22.9300   45.8660   -5.2380 C.3   128  ILE128      0.0252
      6  CG1       22.4960   45.1720   -3.9560 C.3   128  ILE128      0.0019
      7  CG2       23.0540   47.3890   -5.0060 C.3   128  ILE128      0.0019
      8  CD1       23.6050   45.0610   -2.9760 C.3   128  ILE128      0.0001
      9  N         23.7740   40.1890   -6.6360 N.3   130  ARG130     -0.1231
     10  CA        24.7310   39.4590   -5.7460 C.3   130  ARG130      0.1694
     11  C         26.1900   39.7370   -6.0580 C.2   130  ARG130      0.2592
     12  O         27.0390   39.4770   -5.2470 O.2   130  ARG130     -0.2718
     13  CB        24.4720   37.9550   -5.7710 C.3   130  ARG130      0.0321
     14  CG        24.6230   37.2590   -7.1000 C.3   130  ARG130      0.0489
     15  CD        23.9980   35.8690   -7.0010 C.3   130  ARG130      0.2205
     16  NE        24.4750   34.9930   -8.0590 N.pl3 130  ARG130     -0.0865
     17  CZ        23.9320   34.9170   -9.2690 C.cat 130  ARG130      0.5346
     18  NH1       22.9090   35.7000   -9.6130 N.pl3 130  ARG130      0.1354
     19  NH2       24.4400   34.0800  -10.1560 N.pl3 130  ARG130      0.1354
     20  N         26.4700   40.3380   -7.2010 N.am  131  PHE131     -0.1962
     21  CA        27.8320   40.6530   -7.6130 C.3   131  PHE131      0.1771
     22  C         28.3040   42.0400   -7.2610 C.2   131  PHE131      0.2620
     23  O         29.4870   42.2890   -7.2040 O.2   131  PHE131     -0.2715
     24  CB        27.9890   40.5150   -9.1210 C.3   131  PHE131      0.0574
     25  CG        27.5980   39.1670   -9.6830 C.ar  131  PHE131     -0.0200
     26  CD1       28.5270   38.1650   -9.8300 C.ar  131  PHE131     -0.0042
     27  CD2       26.2950   38.9370  -10.1520 C.ar  131  PHE131     -0.0042
     28  CE1       28.1620   36.9150  -10.3720 C.ar  131  PHE131     -0.0003
     29  CE2       25.9380   37.6920  -10.7190 C.ar  131  PHE131     -0.0003
     30  CZ        26.8730   36.6940  -10.8260 C.ar  131  PHE131     -0.0000
     31  N         27.3830   42.9790   -7.1440 N.am  132  THR132     -0.1937
     32  CA        27.6990   44.3790   -7.0140 C.3   132  THR132      0.2028
     33  C         28.5750   44.5980   -5.7720 C.2   132  THR132      0.2642
     34  O         28.2500   44.1250   -4.6540 O.2   132  THR132     -0.2714
     35  CB        26.4080   45.2260   -6.8540 C.3   132  THR132      0.1808
     36  OG1       25.4370   44.9390   -7.8890 O.3   132  THR132     -0.2208
     37  CG2       26.7690   46.6980   -6.8590 C.3   132  THR132      0.0379
     38  N         29.6560   45.3350   -5.9200 N.am  133  ASP133     -0.1957
     39  CA        30.4790   45.6400   -4.7320 C.3   133  ASP133      0.1840
     40  C         30.0370   46.8960   -4.0090 C.2   133  ASP133      0.2622
     41  O         29.3020   47.7180   -4.5480 O.2   133  ASP133     -0.2715
     42  CB        31.9590   45.6570   -5.0740 C.3   133  ASP133      0.1450
     43  CG        32.3340   46.7250   -6.0340 C.2   133  ASP133      0.3671
     44  OD1       31.6260   47.7460   -6.1380 O.co2 133  ASP133     -0.2456
     45  OD2       33.4010   46.5540   -6.6650 O.co2 133  ASP133     -0.2456
     46  N         30.4790   47.0410   -2.7700 N.am  134  SER134     -0.1950
     47  CA        30.0480   48.1450   -1.9150 C.3   134  SER134      0.1924
     48  C         30.4980   49.5240   -2.3960 C.2   134  SER134      0.2314
     49  O         29.7910   50.5170   -2.2020 O.2   134  SER134     -0.2863
     50  CB        30.6520   47.9870   -0.5140 C.3   134  SER134      0.2116
     51  OG        30.4880   49.1920    0.2160 O.3   134  SER134     -0.2180
     52  N         28.1510   50.7810   -5.0920 N.3   137  VAL137     -0.1245
     53  CA        26.9660   51.3040   -4.4770 C.3   137  VAL137      0.1561
     54  C         27.1700   52.6720   -3.8500 C.2   137  VAL137      0.2260
     55  O         26.3630   53.5790   -4.0710 O.2   137  VAL137     -0.2867
     56  CB        26.3910   50.3440   -3.4110 C.3   137  VAL137      0.0252
     57  CG1       25.0960   50.9090   -2.8760 C.3   137  VAL137      0.0019
     58  CG2       26.1880   48.9700   -4.0160 C.3   137  VAL137      0.0019
     59  N         18.5410   51.8760   -1.2510 N.3   153  VAL153     -0.1231
     60  CA        19.3060   50.7600   -1.8130 C.3   153  VAL153      0.1693
     61  C         18.5960   49.4680   -1.4820 C.2   153  VAL153      0.2595
     62  O         18.2700   49.2630   -0.3170 O.2   153  VAL153     -0.2718
     63  CB        20.7430   50.7250   -1.2340 C.3   153  VAL153      0.0266
     64  CG1       21.5280   49.5980   -1.8960 C.3   153  VAL153      0.0020
     65  CG2       21.4680   52.0440   -1.4500 C.3   153  VAL153      0.0020
     66  N         18.3710   48.6260   -2.4940 N.am  154  CYS154     -0.1914
     67  CA        17.5210   47.4340   -2.4230 C.3   154  CYS154      0.2015
     68  C         18.3960   46.2910   -2.9010 C.2   154  CYS154      0.2664
     69  O         19.1940   46.5200   -3.7770 O.2   154  CYS154     -0.2711
     70  CB        16.3450   47.4780   -3.4720 C.2   154  CYS154      0.0465
     71  SG        15.4430   48.8250   -3.5770 S.2   154  CYS154     -0.0529
     72  N         18.1910   45.0900   -2.3750 N.am  155  LYS155     -0.1974
     73  CA        18.8620   43.8870   -2.8650 C.3   155  LYS155      0.1596
     74  C         17.9540   43.1250   -3.8130 C.2   155  LYS155      0.2287
     75  O         16.8410   42.7390   -3.4550 O.2   155  LYS155     -0.2864
     76  CB        19.3250   42.9790   -1.7110 C.3   155  LYS155      0.0298
     77  CG        20.5290   43.5020   -0.9330 C.3   155  LYS155      0.0038
     78  CD        21.2980   42.3420   -0.2240 C.3   155  LYS155      0.0206
     79  CE        22.4100   42.8720    0.7340 C.3   155  LYS155      0.1093
     80  NZ        21.8620   43.6780    1.8640 N.3   155  LYS155     -0.1314
@<TRIPOS>BOND
     1    30    29   ar
     2    30    28   ar
     3    29    27   ar
     4    28    26   ar
     5    19    17    1
     6    27    25   ar
     7    26    25   ar
     8    25    24    1
     9    18    17    1
    10    17    16    2
    11    24    21    1
    12    16    15    1
    13    36    35    1
    14    21    22    1
    15    21    20    1
    16    22    23    2
    17    22    31   am
    18    20    11   am
    19    31    32    1
    20    14    15    1
    21    14    13    1
    22    32    35    1
    23    32    33    1
    24    37    35    1
    25     3     2    1
    26     3     4    2
    27    45    43   ar
    28     9    10    1
    29     2     1    1
    30     2     5    1
    31    44    43   ar
    32    11    10    1
    33    11    12    2
    34    43    42    1
    35    38    33   am
    36    38    39    1
    37    33    34    2
    38    13    10    1
    39     5     7    1
    40     5     6    1
    41    52    53    1
    42    42    39    1
    43    39    40    1
    44    41    40    2
    45    53    54    1
    46    53    56    1
    47    55    54    2
    48    58    56    1
    49    40    46   am
    50     6     8    1
    51    74    75    2
    52    74    73    1
    53    69    68    2
    54    71    70    2
    55    70    67    1
    56    56    57    1
    57    68    67    1
    58    68    72   am
    59    73    72    1
    60    73    76    1
    61    46    47    1
    62    66    67    1
    63    66    61   am
    64    48    49    2
    65    48    47    1
    66    47    50    1
    67    64    63    1
    68    60    61    1
    69    60    59    1
    70    60    63    1
    71    76    77    1
    72    61    62    2
    73    65    63    1
    74    77    78    1
    75    50    51    1
    76    78    79    1
    77    79    80    1
