@<TRIPOS>MOLECULE
tmp/1zeoA00.pdb
 215 202 0 0 0
SMALL
GASTEIGER

@<TRIPOS>ATOM
      1  N         26.8850   15.1040    7.7300 N.3    64  ALA64      -0.1245
      2  CA        26.9290   14.0710    8.7680 C.3    64  ALA64       0.1562
      3  C         26.0880   14.4490    9.9750 C.2    64  ALA64       0.2260
      4  O         25.6220   13.5900   10.7230 O.2    64  ALA64      -0.2867
      5  CB        28.3570   13.8320    9.1960 C.3    64  ALA64       0.0290
      6  N         21.9780   14.5140    9.2960 N.3    67  ILE67      -0.1231
      7  CA        21.4760   13.1530    9.4470 C.3    67  ILE67       0.1692
      8  C         21.3660   12.8140   10.9200 C.2    67  ILE67       0.2592
      9  O         20.4360   12.1410   11.3440 O.2    67  ILE67      -0.2718
     10  CB        22.4110   12.1480    8.7560 C.3    67  ILE67       0.0266
     11  CG1       22.4140   12.4170    7.2530 C.3    67  ILE67       0.0019
     12  CG2       21.9700   10.7240    9.0400 C.3    67  ILE67       0.0020
     13  CD1       23.3370   11.5260    6.4810 C.3    67  ILE67       0.0001
     14  N         22.3250   13.2980   11.6940 N.am   68  PHE68      -0.1976
     15  CA        22.3430   13.0760   13.1240 C.3    68  PHE68       0.1639
     16  C         21.0710   13.6400   13.7440 C.2    68  PHE68       0.2290
     17  O         20.3140   12.9060   14.3630 O.2    68  PHE68      -0.2864
     18  CB        23.5830   13.7380   13.7340 C.3    68  PHE68       0.0560
     19  CG        23.7170   13.5300   15.2250 C.ar   68  PHE68      -0.0200
     20  CD1       23.0730   14.3800   16.1300 C.ar   68  PHE68      -0.0042
     21  CD2       24.4790   12.4720   15.7270 C.ar   68  PHE68      -0.0042
     22  CE1       23.1880   14.1840   17.5080 C.ar   68  PHE68      -0.0003
     23  CE2       24.5980   12.2660   17.1060 C.ar   68  PHE68      -0.0003
     24  CZ        23.9500   13.1270   17.9950 C.ar   68  PHE68      -0.0000
     25  N         17.9780   11.6100   12.7300 N.3    71  CYS71      -0.1221
     26  CA        17.7140   10.3460   13.4080 C.3    71  CYS71       0.1808
     27  C         17.1460   10.6510   14.7830 C.2    71  CYS71       0.2601
     28  O         16.3000    9.9150   15.3110 O.2    71  CYS71      -0.2717
     29  CB        19.0000    9.5310   13.5480 C.3    71  CYS71       0.0970
     30  SG        19.6350    8.9010   11.9920 S.3    71  CYS71      -0.0800
     31  N         17.6030   11.7520   15.3610 N.am   72  GLN72      -0.1979
     32  CA        17.1240   12.1390   16.6690 C.3    72  GLN72       0.1601
     33  C         15.6380   12.4900   16.6170 C.2    72  GLN72       0.2287
     34  O         14.8610   12.1060   17.4920 O.2    72  GLN72      -0.2864
     35  CB        17.9160   13.3240   17.1740 C.3    72  GLN72       0.0394
     36  CG        17.6270   13.6500   18.6110 C.3    72  GLN72       0.0908
     37  CD        18.3330   14.8960   19.0670 C.2    72  GLN72       0.2608
     38  OE1       19.5560   15.0010   18.9790 O.2    72  GLN72      -0.2717
     39  NE2       17.5690   15.8550   19.5570 N.am   72  GLN72      -0.0878
     40  N         13.3310   11.4290   14.4920 N.3    74  ARG74      -0.1231
     41  CA        12.6140   10.1770   14.2960 C.3    74  ARG74       0.1694
     42  C         12.6000    9.2900   15.5560 C.2    74  ARG74       0.2592
     43  O         11.5950    8.6630   15.8890 O.2    74  ARG74      -0.2718
     44  CB        13.2260    9.4270   13.1050 C.3    74  ARG74       0.0321
     45  CG        12.6120    8.0560   12.8550 C.3    74  ARG74       0.0489
     46  CD        11.1010    8.1370   12.8700 C.3    74  ARG74       0.2205
     47  NE        10.4480    6.8370   13.0010 N.pl3  74  ARG74      -0.0865
     48  CZ         9.3010    6.6600   13.6520 C.cat  74  ARG74       0.5346
     49  NH1        8.7020    7.6960   14.2220 N.pl3  74  ARG74       0.1354
     50  NH2        8.7490    5.4700   13.7520 N.pl3  74  ARG74       0.1354
     51  N         13.7290    9.2570   16.2530 N.am   75  SER75      -0.1952
     52  CA        13.9050    8.4770   17.4790 C.3    75  SER75       0.1924
     53  C         12.8860    8.8400   18.5520 C.2    75  SER75       0.2314
     54  O         12.2350    7.9830   19.1470 O.2    75  SER75      -0.2863
     55  CB        15.2900    8.7450   18.0390 C.3    75  SER75       0.2116
     56  OG        15.6320    7.7880   19.0110 O.3    75  SER75      -0.2180
     57  N          9.5810    7.7380   17.5980 N.3    78  ALA78      -0.1245
     58  CA         9.4770    6.2960   17.7840 C.3    78  ALA78       0.1562
     59  C          9.2590    5.9940   19.2520 C.2    78  ALA78       0.2260
     60  O          8.4660    5.1360   19.6300 O.2    78  ALA78      -0.2867
     61  CB        10.7450    5.5940   17.3030 C.3    78  ALA78       0.0290
     62  N         14.8740    1.2520   23.2480 N.3   109  HIS109     -0.1241
     63  CA        15.7860    1.0310   22.1290 C.3   109  HIS109      0.1621
     64  C         15.7930   -0.4020   21.6350 C.2   109  HIS109      0.2264
     65  O         15.9080   -0.6440   20.4510 O.2   109  HIS109     -0.2867
     66  CB        17.1970    1.5420   22.4520 C.3   109  HIS109      0.0745
     67  CG        17.2970    3.0340   22.3670 C.ar  109  HIS109      0.0817
     68  ND1       17.0380    3.8590   23.4440 N.ar  109  HIS109     -0.2268
     69  CD2       17.4630    3.8510   21.2980 C.ar  109  HIS109      0.1154
     70  CE1       17.0390    5.1200   23.0430 C.ar  109  HIS109      0.1986
     71  NE2       17.2930    5.1410   21.7450 N.ar  109  HIS109     -0.2212
     72  N         13.1020   -0.3280   19.3210 N.3   112  ILE112     -0.1231
     73  CA        13.4550    0.4830   18.1860 C.3   112  ILE112      0.1692
     74  C         14.3280   -0.2450   17.1810 C.2   112  ILE112      0.2592
     75  O         14.0840   -0.1660   15.9880 O.2   112  ILE112     -0.2718
     76  CB        14.1620    1.7980   18.6540 C.3   112  ILE112      0.0266
     77  CG1       13.1320    2.8210   19.0850 C.3   112  ILE112      0.0019
     78  CG2       15.0220    2.3640   17.5550 C.3   112  ILE112      0.0020
     79  CD1       13.7200    3.9480   19.8590 C.3   112  ILE112      0.0001
     80  N         15.3560   -0.9490   17.6420 N.am  113  TYR113     -0.1976
     81  CA        16.2160   -1.6790   16.7040 C.3   113  TYR113      0.1639
     82  C         15.5010   -2.8990   16.1030 C.2   113  TYR113      0.2290
     83  O         15.7730   -3.2830   14.9910 O.2   113  TYR113     -0.2864
     84  CB        17.5480   -2.0750   17.3930 C.3   113  TYR113      0.0560
     85  CG        18.3020   -0.8780   17.9320 C.ar  113  TYR113     -0.0198
     86  CD1       18.4780    0.2690   17.1380 C.ar  113  TYR113     -0.0009
     87  CD2       18.7650   -0.8330   19.2610 C.ar  113  TYR113     -0.0009
     88  CE1       19.0800    1.4330   17.6460 C.ar  113  TYR113      0.0417
     89  CE2       19.3640    0.3290   19.7820 C.ar  113  TYR113      0.0417
     90  CZ        19.5110    1.4520   18.9660 C.ar  113  TYR113      0.1957
     91  OH        20.0530    2.6190   19.4530 O.3   113  TYR113     -0.2866
     92  N         13.1450   -1.5260   13.4770 N.3   116  LEU116     -0.1245
     93  CA        13.9240   -0.8460   12.4660 C.3   116  LEU116      0.1561
     94  C         14.4180   -1.8200   11.4160 C.2   116  LEU116      0.2260
     95  O         14.7660   -1.4290   10.3080 O.2   116  LEU116     -0.2867
     96  CB        15.1130   -0.1590   13.0940 C.3   116  LEU116      0.0270
     97  CG        16.0680    0.4300   12.0530 C.3   116  LEU116      0.0019
     98  CD1       15.3790    1.5680   11.2890 C.3   116  LEU116      0.0001
     99  CD2       17.3110    0.9190   12.7400 C.3   116  LEU116      0.0001
    100  N         12.3460   -1.8960    8.3310 N.3   119  LEU119     -0.1245
    101  CA        12.5910   -0.8730    7.3490 C.3   119  LEU119      0.1561
    102  C         13.8940   -1.0610    6.5680 C.2   119  LEU119      0.2260
    103  O         14.2340   -0.2290    5.7180 O.2   119  LEU119     -0.2867
    104  CB        12.6110    0.4890    8.0550 C.3   119  LEU119      0.0270
    105  CG        11.3130    1.1340    8.5640 C.3   119  LEU119      0.0019
    106  CD1       10.5390    0.1820    9.3940 C.3   119  LEU119      0.0001
    107  CD2       11.6400    2.3950    9.3590 C.3   119  LEU119      0.0001
    108  N         18.0100    1.5710    4.2440 N.3   125  VAL125     -0.1245
    109  CA        16.9040    1.7750    5.1440 C.3   125  VAL125      0.1561
    110  C         15.9260    2.8540    4.7180 C.2   125  VAL125      0.2260
    111  O         16.3150    3.9170    4.2590 O.2   125  VAL125     -0.2867
    112  CB        17.4500    2.1280    6.5480 C.3   125  VAL125      0.0252
    113  CG1       18.1650    3.4870    6.5100 C.3   125  VAL125      0.0019
    114  CG2       16.3180    2.1190    7.5730 C.3   125  VAL125      0.0019
    115  N         25.6940    5.8380    4.4160 N.3   139  LEU139     -0.1245
    116  CA        25.7500    5.9360    5.8760 C.3   139  LEU139      0.1561
    117  C         27.0910    5.4560    6.3970 C.2   139  LEU139      0.2260
    118  O         27.6140    6.0020    7.3580 O.2   139  LEU139     -0.2867
    119  CB        24.6470    5.0890    6.5060 C.3   139  LEU139      0.0270
    120  CG        23.2250    5.5140    6.1800 C.3   139  LEU139      0.0019
    121  CD1       22.2770    4.3700    6.4630 C.3   139  LEU139      0.0001
    122  CD2       22.8800    6.7670    6.9930 C.3   139  LEU139      0.0001
    123  N         29.7860    8.4290    6.0550 N.3   142  LEU142     -0.1245
    124  CA        29.6650    9.7490    6.6450 C.3   142  LEU142      0.1561
    125  C         30.9510   10.0640    7.4110 C.2   142  LEU142      0.2260
    126  O         31.7610    9.1730    7.7080 O.2   142  LEU142     -0.2867
    127  CB        28.4720    9.8070    7.5980 C.3   142  LEU142      0.0270
    128  CG        27.1170    9.5220    6.9490 C.3   142  LEU142      0.0019
    129  CD1       26.0530    9.2900    8.0080 C.3   142  LEU142      0.0001
    130  CD2       26.7460   10.6760    6.0310 C.3   142  LEU142      0.0001
    131  N         30.4050    9.2660   12.7540 N.3   146  PHE146     -0.1241
    132  CA        29.0010    9.1480   12.3630 C.3   146  PHE146      0.1605
    133  C         28.7360    8.0330   11.3470 C.2   146  PHE146      0.2264
    134  O         27.5770    7.7020   11.0750 O.2   146  PHE146     -0.2867
    135  CB        28.5180   10.4520   11.7690 C.3   146  PHE146      0.0534
    136  CG        28.5770   11.6130   12.7080 C.ar  146  PHE146     -0.0203
    137  CD1       27.5210   11.8750   13.5850 C.ar  146  PHE146     -0.0042
    138  CD2       29.6570   12.4970   12.6680 C.ar  146  PHE146     -0.0042
    139  CE1       27.5370   13.0020   14.3980 C.ar  146  PHE146     -0.0003
    140  CE2       29.6830   13.6290   13.4790 C.ar  146  PHE146     -0.0003
    141  CZ        28.6280   13.8860   14.3420 C.ar  146  PHE146     -0.0000
    142  N         27.5820    4.3220   13.1210 N.3   149  PHE149     -0.1227
    143  CA        26.3120    4.1620   13.8190 C.3   149  PHE149      0.1736
    144  C         25.4940    2.9960   13.2940 C.2   149  PHE149      0.2595
    145  O         25.1700    2.0490   14.0310 O.2   149  PHE149     -0.2718
    146  CB        25.4410    5.4190   13.6750 C.3   149  PHE149      0.0547
    147  CG        25.6120    6.4200   14.7710 C.ar  149  PHE149     -0.0202
    148  CD1       25.3640    6.0700   16.0890 C.ar  149  PHE149     -0.0042
    149  CD2       26.0480    7.7170   14.4880 C.ar  149  PHE149     -0.0042
    150  CE1       25.5570    7.0020   17.1300 C.ar  149  PHE149     -0.0003
    151  CE2       26.2350    8.6560   15.5200 C.ar  149  PHE149     -0.0003
    152  CZ        25.9940    8.2980   16.8450 C.ar  149  PHE149     -0.0000
    153  N         25.1760    3.0930   12.0030 N.am  150  MET150     -0.1979
    154  CA        24.3250    2.1510   11.3110 C.3   150  MET150      0.1605
    155  C         24.7460    0.7150   10.9750 C.2   150  MET150      0.2287
    156  O         23.9010   -0.1800   11.0020 O.2   150  MET150     -0.2864
    157  CB        23.8090    2.8420   10.0610 C.3   150  MET150      0.0413
    158  CG        23.0230    4.1020   10.3670 C.3   150  MET150      0.0598
    159  SD        21.4800    3.8050   11.3020 S.3   150  MET150     -0.1393
    160  CE        20.3810    3.1580    9.9410 C.3   150  MET150      0.0692
    161  N         23.4440   -2.2090   13.0490 N.3   153  LYS153     -0.1245
    162  CA        21.9830   -2.3530   13.0110 C.3   153  LYS153      0.1561
    163  C         21.6380   -3.1010   11.7200 C.2   153  LYS153      0.2260
    164  O         20.7370   -3.9480   11.6870 O.2   153  LYS153     -0.2867
    165  CB        21.2790   -0.9870   12.9990 C.3   153  LYS153      0.0271
    166  CG        21.2150   -0.2610   14.3340 C.3   153  LYS153      0.0035
    167  CD        22.5860    0.1780   14.7960 C.3   153  LYS153      0.0206
    168  CE        22.4930    1.0190   16.0550 C.3   153  LYS153      0.1093
    169  NZ        23.8400    1.3530   16.5540 N.3   153  LYS153     -0.1314
    170  N         26.1680    1.0120   21.1010 N.3   235  HIS235     -0.1241
    171  CA        25.6150    2.2970   20.7100 C.3   235  HIS235      0.1621
    172  C         25.8950    3.4100   21.7150 C.2   235  HIS235      0.2264
    173  O         26.3050    4.5040   21.3440 O.2   235  HIS235     -0.2867
    174  CB        24.1040    2.1710   20.5170 C.3   235  HIS235      0.0745
    175  CG        23.4830    3.3860   19.9100 C.ar  235  HIS235      0.0817
    176  ND1       23.6000    3.6850   18.5700 N.ar  235  HIS235     -0.2268
    177  CD2       22.7940    4.4080   20.4680 C.ar  235  HIS235      0.1154
    178  CE1       23.0090    4.8400   18.3290 C.ar  235  HIS235      0.1986
    179  NE2       22.5150    5.3000   19.4640 N.ar  235  HIS235     -0.2212
    180  N         27.7950    7.1750   21.3750 N.3   239  LEU239     -0.1245
    181  CA        27.2720    8.4860   21.7690 C.3   239  LEU239      0.1561
    182  C         28.1430    9.2110   22.7910 C.2   239  LEU239      0.2260
    183  O         28.2690   10.4430   22.7500 O.2   239  LEU239     -0.2867
    184  CB        25.8460    8.3620   22.3360 C.3   239  LEU239      0.0270
    185  CG        24.6900    8.0910   21.3680 C.3   239  LEU239      0.0019
    186  CD1       23.4210    7.6830   22.1300 C.3   239  LEU239      0.0001
    187  CD2       24.4580    9.3250   20.5240 C.3   239  LEU239      0.0001
    188  N         21.6290   16.7480   22.8680 N.3   251  LEU251     -0.1245
    189  CA        20.8600   15.5390   22.9040 C.3   251  LEU251      0.1561
    190  C         19.4620   15.9840   23.2800 C.2   251  LEU251      0.2260
    191  O         19.2950   17.0070   23.9360 O.2   251  LEU251     -0.2867
    192  CB        21.4190   14.5860   23.9440 C.3   251  LEU251      0.0270
    193  CG        20.9590   13.1420   23.7740 C.3   251  LEU251      0.0019
    194  CD1       21.3560   12.6700   22.3850 C.3   251  LEU251      0.0001
    195  CD2       21.5890   12.2660   24.8470 C.3   251  LEU251      0.0001
    196  N         15.7720   11.4230   24.9160 N.3   255  LEU255     -0.1245
    197  CA        16.8550   10.4640   24.7040 C.3   255  LEU255      0.1561
    198  C         17.9010   10.5600   25.8270 C.2   255  LEU255      0.2260
    199  O         18.4830    9.5530   26.2580 O.2   255  LEU255     -0.2867
    200  CB        17.5320   10.7040   23.3540 C.3   255  LEU255      0.0270
    201  CG        16.6560   10.5770   22.1140 C.3   255  LEU255      0.0019
    202  CD1       17.5130   10.7610   20.8700 C.3   255  LEU255      0.0001
    203  CD2       15.9740    9.2180   22.0960 C.3   255  LEU255      0.0001
    204  N         19.2060    7.3890   28.2340 N.3   259  TYR259     -0.1241
    205  CA        20.6130    7.0250   28.3510 C.3   259  TYR259      0.1605
    206  C         21.3130    7.2350   29.7000 C.2   259  TYR259      0.2264
    207  O         22.1800    6.4350   30.0820 O.2   259  TYR259     -0.2867
    208  CB        21.3960    7.7080   27.2360 C.3   259  TYR259      0.0534
    209  CG        21.0290    7.1540   25.8730 C.ar  259  TYR259     -0.0201
    210  CD1       21.0280    5.7820   25.6490 C.ar  259  TYR259     -0.0009
    211  CD2       20.6720    7.9960   24.8110 C.ar  259  TYR259     -0.0009
    212  CE1       20.6840    5.2520   24.4140 C.ar  259  TYR259      0.0417
    213  CE2       20.3260    7.4730   23.5650 C.ar  259  TYR259      0.0417
    214  CZ        20.3380    6.0920   23.3790 C.ar  259  TYR259      0.1957
    215  OH        20.0320    5.5410   22.1570 O.3   259  TYR259     -0.2866
@<TRIPOS>BOND
     1   108   109    1
     2   111   110    2
     3   115   116    1
     4   110   109    1
     5   109   112    1
     6   103   102    2
     7   116   117    1
     8   116   119    1
     9   130   128    1
    10   123   124    1
    11   120   121    1
    12   120   119    1
    13   120   122    1
    14   117   118    2
    15    13    11    1
    16   113   112    1
    17   112   114    1
    18   102   101    1
    19   124   125    1
    20   124   127    1
    21   128   127    1
    22   128   129    1
    23    11    10    1
    24   101   104    1
    25   101   100    1
    26   125   126    2
    27     1     2    1
    28   104   105    1
    29   105   107    1
    30   105   106    1
    31    10    12    1
    32    10     7    1
    33     2     5    1
    34     2     3    1
    35     6     7    1
    36     7     8    1
    37   160   159    1
    38     3     4    2
    39   157   158    1
    40   157   154    1
    41    95    94    2
    42   158   159    1
    43     8     9    2
    44     8    14   am
    45   155   156    2
    46   155   154    1
    47   134   133    2
    48    98    97    1
    49   154   153    1
    50   133   132    1
    51    94    93    1
    52   164   163    2
    53    14    15    1
    54   163   162    1
    55   135   132    1
    56   135   136    1
    57    30    29    1
    58   153   144   am
    59    97    99    1
    60    97    96    1
    61   132   131    1
    62    93    96    1
    63    93    92    1
    64   138   136   ar
    65   138   140   ar
    66   136   137   ar
    67    25    26    1
    68    45    46    1
    69    45    44    1
    70    46    47    1
    71   165   162    1
    72   165   166    1
    73    47    48    2
    74   162   161    1
    75    44    41    1
    76   142   143    1
    77    15    18    1
    78    15    16    1
    79   144   143    1
    80   144   145    2
    81    26    29    1
    82    26    27    1
    83   140   141   ar
    84   137   139   ar
    85    48    50    1
    86    48    49    1
    87   146   143    1
    88   146   147    1
    89    18    19    1
    90    16    17    2
    91    41    40    1
    92    41    42    1
    93   166   167    1
    94   141   139   ar
    95   149   147   ar
    96   149   151   ar
    97   147   148   ar
    98    27    28    2
    99    27    31   am
   100   167   168    1
   101    83    82    2
   102    19    21   ar
   103    19    20   ar
   104    31    32    1
   105   151   152   ar
   106    42    43    2
   107    42    51   am
   108    21    23   ar
   109    75    74    2
   110   168   169    1
   111   148   150   ar
   112    82    81    1
   113    20    22   ar
   114    51    52    1
   115    33    32    1
   116    33    34    2
   117    32    35    1
   118    81    84    1
   119    81    80    1
   120   152   150   ar
   121    23    24   ar
   122    86    88   ar
   123    86    85   ar
   124    35    36    1
   125    74    80   am
   126    74    73    1
   127    61    58    1
   128    84    85    1
   129    52    55    1
   130    52    53    1
   131    22    24   ar
   132    78    76    1
   133    57    58    1
   134    88    90   ar
   135    58    59    1
   136    85    87   ar
   137    55    56    1
   138    73    76    1
   139    73    72    1
   140   178   176   ar
   141   178   179   ar
   142    53    54    2
   143   176   175   ar
   144    36    37    1
   145    76    77    1
   146    90    91    1
   147    90    89   ar
   148    38    37    2
   149    37    39   am
   150    77    79    1
   151    59    60    2
   152    87    89   ar
   153   179   177   ar
   154   175   177   ar
   155   175   174    1
   156    65    64    2
   157   174   171    1
   158   187   185    1
   159   171   170    1
   160   171   172    1
   161   202   201    1
   162    69    71   ar
   163    69    67   ar
   164   173   172    2
   165   185   186    1
   166   185   184    1
   167   180   181    1
   168    64    63    1
   169    71    70   ar
   170   181   184    1
   171   181   182    1
   172   203   201    1
   173   201   200    1
   174    63    66    1
   175    63    62    1
   176   215   214    1
   177    67    66    1
   178    67    68   ar
   179   194   193    1
   180   183   182    2
   181   188   189    1
   182   189   190    1
   183   189   192    1
   184    70    68   ar
   185   190   191    2
   186   200   197    1
   187   214   213   ar
   188   214   212   ar
   189   213   211   ar
   190   193   192    1
   191   193   195    1
   192   212   210   ar
   193   197   196    1
   194   197   198    1
   195   211   209   ar
   196   210   209   ar
   197   198   199    2
   198   209   208    1
   199   208   205    1
   200   204   205    1
   201   205   206    1
   202   206   207    2
