@<TRIPOS>MOLECULE
tmp/1zetC00.pdb
 145 141 0 0 0
SMALL
GASTEIGER

@<TRIPOS>ATOM
      1  N         59.8680   67.0050  -11.3590 N.3     8  ASP8       -0.1225
      2  CA        58.6350   66.6380  -12.0370 C.3     8  ASP8        0.1805
      3  C         58.1710   67.8510  -12.8270 C.2     8  ASP8        0.2598
      4  O         57.8220   68.8790  -12.2510 O.2     8  ASP8       -0.2718
      5  CB        57.5830   66.2520  -10.9970 C.3     8  ASP8        0.1424
      6  CG        56.4030   65.5460  -11.6070 C.2     8  ASP8        0.3668
      7  OD1       56.1570   65.7840  -12.7980 O.co2   8  ASP8       -0.2456
      8  OD2       55.7280   64.7680  -10.9030 O.co2   8  ASP8       -0.2456
      9  N         58.1730   67.7320  -14.1480 N.am    9  LEU9       -0.1966
     10  CA        57.7890   68.8500  -14.9960 C.3     9  LEU9        0.1728
     11  C         56.2860   69.0960  -15.0850 C.2     9  LEU9        0.2616
     12  O         55.4790   68.1810  -14.9440 O.2     9  LEU9       -0.2715
     13  CB        58.3870   68.6560  -16.3920 C.3     9  LEU9        0.0311
     14  CG        59.9180   68.5070  -16.3780 C.3     9  LEU9        0.0022
     15  CD1       60.4670   68.6750  -17.7820 C.3     9  LEU9        0.0001
     16  CD2       60.5350   69.5520  -15.4510 C.3     9  LEU9        0.0001
     17  N         55.9200   70.3510  -15.3100 N.am   10  ASP10      -0.1957
     18  CA        54.5180   70.7260  -15.4210 C.3    10  ASP10       0.1840
     19  C         53.9270   70.2400  -16.7470 C.2    10  ASP10       0.2622
     20  O         54.5370   70.4290  -17.7950 O.2    10  ASP10      -0.2715
     21  CB        54.3710   72.2520  -15.3400 C.3    10  ASP10       0.1450
     22  CG        55.0880   72.8570  -14.1360 C.2    10  ASP10       0.3671
     23  OD1       55.0140   72.2810  -13.0310 O.co2  10  ASP10      -0.2456
     24  OD2       55.7160   73.9230  -14.2920 O.co2  10  ASP10      -0.2456
     25  N         52.7550   69.6060  -16.6850 N.am   11  CYS11      -0.1954
     26  CA        52.0350   69.1290  -17.8660 C.3    11  CYS11       0.1843
     27  C         52.9700   69.0340  -19.0660 C.2    11  CYS11       0.2625
     28  O         52.8100   69.7600  -20.0600 O.2    11  CYS11      -0.2714
     29  CB        50.8950   70.1090  -18.1730 C.3    11  CYS11       0.0997
     30  SG        51.4440   71.8580  -18.2930 S.3    11  CYS11      -0.0797
     31  N         53.9270   68.1150  -18.9670 N.am   12  PHE12      -0.1960
     32  CA        54.9650   67.9410  -19.9760 C.3    12  PHE12       0.1771
     33  C         54.5960   68.0630  -21.4570 C.2    12  PHE12       0.2619
     34  O         55.1360   68.9230  -22.1480 O.2    12  PHE12      -0.2715
     35  CB        55.7120   66.6210  -19.7320 C.3    12  PHE12       0.0574
     36  CG        56.9720   66.4800  -20.5360 C.ar   12  PHE12      -0.0200
     37  CD1       57.9450   67.4840  -20.5110 C.ar   12  PHE12      -0.0042
     38  CD2       57.1890   65.3500  -21.3260 C.ar   12  PHE12      -0.0042
     39  CE1       59.1230   67.3660  -21.2630 C.ar   12  PHE12      -0.0003
     40  CE2       58.3590   65.2160  -22.0830 C.ar   12  PHE12      -0.0003
     41  CZ        59.3310   66.2310  -22.0530 C.ar   12  PHE12      -0.0000
     42  N         53.6990   67.2170  -21.9520 N.am   13  TYR13      -0.1974
     43  CA        53.3320   67.2820  -23.3680 C.3    13  TYR13       0.1639
     44  C         52.7850   68.6560  -23.7550 C.2    13  TYR13       0.2290
     45  O         53.1540   69.2170  -24.7860 O.2    13  TYR13      -0.2864
     46  CB        52.3010   66.2030  -23.7100 C.3    13  TYR13       0.0560
     47  CG        52.8020   64.7700  -23.6830 C.ar   13  TYR13      -0.0198
     48  CD1       54.1220   64.4590  -23.3420 C.ar   13  TYR13      -0.0009
     49  CD2       51.9360   63.7170  -23.9830 C.ar   13  TYR13      -0.0009
     50  CE1       54.5600   63.1360  -23.2980 C.ar   13  TYR13       0.0417
     51  CE2       52.3610   62.3950  -23.9440 C.ar   13  TYR13       0.0417
     52  CZ        53.6710   62.1070  -23.6000 C.ar   13  TYR13       0.1957
     53  OH        54.0730   60.7860  -23.5410 O.3    13  TYR13      -0.2866
     54  N         45.2610   61.9400  -27.6160 N.3    33  GLN33      -0.1245
     55  CA        45.8130   60.6710  -28.0690 C.3    33  GLN33       0.1566
     56  C         44.6540   59.6910  -28.2540 C.2    33  GLN33       0.2260
     57  O         44.2260   59.0430  -27.2990 O.2    33  GLN33      -0.2867
     58  CB        46.7960   60.1060  -27.0400 C.3    33  GLN33       0.0367
     59  CG        48.1710   60.7520  -27.0470 C.3    33  GLN33       0.0905
     60  CD        49.1250   60.0890  -26.0640 C.2    33  GLN33       0.2608
     61  OE1       50.3340   60.3280  -26.0920 O.2    33  GLN33      -0.2717
     62  NE2       48.5820   59.2550  -25.1860 N.am   33  GLN33      -0.0878
     63  N         45.4280   62.9910  -22.7490 N.3    38  VAL38      -0.1231
     64  CA        46.3980   62.5520  -21.7550 C.3    38  VAL38       0.1692
     65  C         46.7730   63.6620  -20.7920 C.2    38  VAL38       0.2592
     66  O         46.9930   63.4120  -19.6070 O.2    38  VAL38      -0.2718
     67  CB        47.6920   62.0230  -22.4060 C.3    38  VAL38       0.0266
     68  CG1       47.4730   60.6090  -22.9060 C.3    38  VAL38       0.0020
     69  CG2       48.1220   62.9440  -23.5480 C.3    38  VAL38       0.0020
     70  N         46.8480   64.8900  -21.2960 N.am   39  THR39      -0.1953
     71  CA        47.2060   66.0080  -20.4440 C.3    39  THR39       0.1897
     72  C         46.7590   67.3300  -21.0430 C.2    39  THR39       0.2313
     73  O         46.3420   67.3930  -22.2000 O.2    39  THR39      -0.2863
     74  CB        48.7360   66.0410  -20.1940 C.3    39  THR39       0.1794
     75  OG1       49.0240   66.8930  -19.0770 O.3    39  THR39      -0.2208
     76  CG2       49.4700   66.5600  -21.4260 C.3    39  THR39       0.0378
     77  N         47.8740   74.0400  -17.3640 N.3    42  TYR42      -0.1241
     78  CA        47.1620   74.5130  -16.1830 C.3    42  TYR42       0.1605
     79  C         46.1230   75.5740  -16.5100 C.2    42  TYR42       0.2264
     80  O         45.1870   75.7970  -15.7420 O.2    42  TYR42      -0.2867
     81  CB        48.1620   75.0390  -15.1540 C.3    42  TYR42       0.0534
     82  CG        48.9310   73.9230  -14.4900 C.ar   42  TYR42      -0.0201
     83  CD1       48.5180   73.4000  -13.2650 C.ar   42  TYR42      -0.0009
     84  CD2       50.0280   73.3390  -15.1210 C.ar   42  TYR42      -0.0009
     85  CE1       49.1760   72.3180  -12.6840 C.ar   42  TYR42       0.0417
     86  CE2       50.6930   72.2530  -14.5500 C.ar   42  TYR42       0.0417
     87  CZ        50.2600   71.7480  -13.3320 C.ar   42  TYR42       0.1957
     88  OH        50.9040   70.6700  -12.7700 O.3    42  TYR42      -0.2866
     89  N         43.3970   73.2690  -16.6030 N.3    45  ARG45      -0.1245
     90  CA        43.2730   72.3040  -15.5260 C.3    45  ARG45       0.1563
     91  C         42.3340   72.9080  -14.4850 C.2    45  ARG45       0.2260
     92  O         41.7970   72.2060  -13.6270 O.2    45  ARG45      -0.2867
     93  CB        44.6520   72.0250  -14.9210 C.3    45  ARG45       0.0307
     94  CG        44.6870   70.8750  -13.9350 C.3    45  ARG45       0.0489
     95  CD        46.0840   70.2860  -13.8280 C.3    45  ARG45       0.2205
     96  NE        46.5790   69.8350  -15.1290 N.pl3  45  ARG45      -0.0865
     97  CZ        47.7000   69.1410  -15.3090 C.cat  45  ARG45       0.5346
     98  NH1       48.4580   68.8070  -14.2710 N.pl3  45  ARG45       0.1354
     99  NH2       48.0670   68.7820  -16.5310 N.pl3  45  ARG45       0.1354
    100  N         42.8050   65.5420  -17.1610 N.3    51  LYS51      -0.1245
    101  CA        43.4480   64.4890  -17.9380 C.3    51  LYS51       0.1561
    102  C         42.4110   63.4090  -18.2420 C.2    51  LYS51       0.2260
    103  O         42.7400   62.2280  -18.3930 O.2    51  LYS51      -0.2867
    104  CB        44.6140   63.8920  -17.1430 C.3    51  LYS51       0.0271
    105  CG        45.5790   64.9350  -16.5920 C.3    51  LYS51       0.0035
    106  CD        46.6400   64.3040  -15.7030 C.3    51  LYS51       0.0206
    107  CE        47.5800   65.3560  -15.1300 C.3    51  LYS51       0.1093
    108  NZ        48.5720   64.7680  -14.1850 N.3    51  LYS51      -0.1314
    109  N         58.5450   59.9840  -19.0220 N.3    99  PHE99      -0.1227
    110  CA        59.2310   61.0070  -19.8000 C.3    99  PHE99       0.1736
    111  C         59.5020   62.3430  -19.1120 C.2    99  PHE99       0.2595
    112  O         60.2610   63.1570  -19.6420 O.2    99  PHE99      -0.2718
    113  CB        58.4650   61.2530  -21.1050 C.3    99  PHE99       0.0547
    114  CG        58.7190   60.2130  -22.1650 C.ar   99  PHE99      -0.0202
    115  CD1       59.3530   59.0120  -21.8510 C.ar   99  PHE99      -0.0042
    116  CD2       58.3310   60.4370  -23.4810 C.ar   99  PHE99      -0.0042
    117  CE1       59.5960   58.0490  -22.8360 C.ar   99  PHE99      -0.0003
    118  CE2       58.5670   59.4830  -24.4710 C.ar   99  PHE99      -0.0003
    119  CZ        59.2040   58.2850  -24.1450 C.ar   99  PHE99      -0.0000
    120  N         58.9110   62.5890  -17.9450 N.am  100  ASP100     -0.1960
    121  CA        59.1490   63.8760  -17.2950 C.3   100  ASP100      0.1840
    122  C         59.4980   63.8700  -15.8160 C.2   100  ASP100      0.2621
    123  O         59.4190   64.9070  -15.1570 O.2   100  ASP100     -0.2715
    124  CB        57.9630   64.8100  -17.5080 C.3   100  ASP100      0.1450
    125  CG        56.8130   64.5030  -16.5930 C.2   100  ASP100      0.3671
    126  OD1       55.8510   65.2940  -16.5980 O.co2 100  ASP100     -0.2456
    127  OD2       56.8580   63.4770  -15.8790 O.co2 100  ASP100     -0.2456
    128  N         59.8670   62.7120  -15.2860 N.am  101  GLU101     -0.1977
    129  CA        60.2670   62.6430  -13.8890 C.3   101  GLU101      0.1602
    130  C         61.7040   62.1600  -13.8220 C.2   101  GLU101      0.2287
    131  O         62.1110   61.2850  -14.5890 O.2   101  GLU101     -0.2864
    132  CB        59.3530   61.7000  -13.0930 C.3   101  GLU101      0.0415
    133  CG        57.9940   62.3000  -12.7340 C.3   101  GLU101      0.1163
    134  CD        57.1510   61.3550  -11.8940 C.2   101  GLU101      0.3649
    135  OE1       57.6260   60.9080  -10.8250 O.co2 101  GLU101     -0.2457
    136  OE2       56.0110   61.0580  -12.3040 O.co2 101  GLU101     -0.2457
    137  N         52.2850   72.4430   -6.6510 N.3   188  LYS188     -0.1245
    138  CA        52.4530   71.9790   -8.0300 C.3   188  LYS188      0.1561
    139  C         52.7010   72.9380   -9.1670 C.2   188  LYS188      0.2260
    140  O         53.3730   72.5920  -10.1370 O.2   188  LYS188     -0.2867
    141  CB        51.2770   71.0830   -8.4290 C.3   188  LYS188      0.0271
    142  CG        51.2080   69.7640   -7.6730 C.3   188  LYS188      0.0035
    143  CD        50.2330   68.7880   -8.3190 C.3   188  LYS188      0.0206
    144  CE        50.8090   68.1640   -9.5910 C.3   188  LYS188      0.1093
    145  NZ        51.1030   69.1720  -10.6390 N.3   188  LYS188     -0.1314
@<TRIPOS>BOND
     1    56    55    1
     2    56    57    2
     3    55    54    1
     4    55    58    1
     5    59    58    1
     6    59    60    1
     7    61    60    2
     8    60    62   am
     9    45    44    2
    10   118   119   ar
    11   118   116   ar
    12   119   117   ar
    13    49    51   ar
    14    49    47   ar
    15    51    52   ar
    16    44    43    1
    17    46    47    1
    18    46    43    1
    19    47    48   ar
    20    52    53    1
    21    52    50   ar
    22    69    67    1
    23   116   114   ar
    24    43    42    1
    25    48    50   ar
    26    68    67    1
    27   117   115   ar
    28    63    64    1
    29    67    64    1
    30    73    72    2
    31   114   115   ar
    32   114   113    1
    33    34    33    2
    34    40    41   ar
    35    40    38   ar
    36    41    39   ar
    37    42    33   am
    38    64    65    1
    39    33    32    1
    40    76    74    1
    41    38    36   ar
    42    70    65   am
    43    70    71    1
    44    39    37   ar
    45   113   110    1
    46    72    71    1
    47    65    66    2
    48    36    37   ar
    49    36    35    1
    50    71    74    1
    51    74    75    1
    52    28    27    2
    53    32    35    1
    54    32    31    1
    55   110   111    1
    56   110   109    1
    57   112   111    2
    58   111   120   am
    59    27    31   am
    60    27    26    1
    61   103   102    2
    62    30    29    1
    63   102   101    1
    64    29    26    1
    65   120   121    1
    66   101   100    1
    67   101   104    1
    68    26    25    1
    69    20    19    2
    70    15    14    1
    71   124   121    1
    72   124   125    1
    73    77    78    1
    74   121   122    1
    75   104   105    1
    76    19    25   am
    77    19    18    1
    78    89    90    1
    79   126   125   ar
    80   125   127   ar
    81   105   106    1
    82    99    97    1
    83    79    78    1
    84    79    80    2
    85    13    14    1
    86    13    10    1
    87    14    16    1
    88    78    81    1
    89   122   128   am
    90   122   123    2
    91   106   107    1
    92    90    93    1
    93    90    91    1
    94    18    21    1
    95    18    17    1
    96    21    22    1
    97    17    11   am
    98    97    96    2
    99    97    98    1
   100   128   129    1
   101    81    82    1
   102   107   108    1
   103    96    95    1
   104    84    86   ar
   105    84    82   ar
   106    11    10    1
   107    11    12    2
   108    10     9    1
   109    93    94    1
   110   131   130    2
   111    86    87   ar
   112    82    83   ar
   113    91    92    2
   114    24    22   ar
   115     9     3   am
   116    22    23   ar
   117    94    95    1
   118   129   130    1
   119   129   132    1
   120    87    88    1
   121    87    85   ar
   122    83    85   ar
   123   132   133    1
   124     3     4    2
   125     3     2    1
   126     7     6   ar
   127   133   134    1
   128   136   134   ar
   129     2     1    1
   130     2     5    1
   131   134   135   ar
   132     6     5    1
   133     6     8   ar
   134   145   144    1
   135   140   139    2
   136   144   143    1
   137   139   138    1
   138   141   138    1
   139   141   142    1
   140   143   142    1
   141   138   137    1
