@<TRIPOS>MOLECULE
tmp/1zfjA00.pdb
 156 145 0 0 0
SMALL
GASTEIGER

@<TRIPOS>ATOM
      1  N        104.6410   66.2790   18.4010 N.3    50  ALA50      -0.1231
      2  CA       104.1000   64.9370   18.5760 C.3    50  ALA50       0.1694
      3  C        104.8420   63.8130   17.8490 C.2    50  ALA50       0.2591
      4  O        105.3850   63.9970   16.7600 O.2    50  ALA50      -0.2718
      5  CB       102.6380   64.9310   18.1830 C.3    50  ALA50       0.0304
      6  N        104.8520   62.6390   18.4770 N.am   51  ALA51      -0.1980
      7  CA       105.4960   61.4500   17.9320 C.3    51  ALA51       0.1597
      8  C        104.5390   60.7870   16.9450 C.2    51  ALA51       0.2287
      9  O        104.0970   59.6600   17.1460 O.2    51  ALA51      -0.2864
     10  CB       105.8330   60.4840   19.0630 C.3    51  ALA51       0.0319
     11  N        105.0840   55.9280   24.9110 N.3   246  ASP246     -0.1239
     12  CA       103.7930   56.4050   24.4390 C.3   246  ASP246      0.1674
     13  C        102.7590   55.2980   24.5280 C.2   246  ASP246      0.2266
     14  O        102.9000   54.2560   23.8970 O.2   246  ASP246     -0.2867
     15  CB       103.9690   56.8860   22.9870 C.3   246  ASP246      0.1410
     16  CG       103.0270   58.0240   22.6080 C.2   246  ASP246      0.3668
     17  OD1      103.0070   59.0590   23.3240 O.co2 246  ASP246     -0.2456
     18  OD2      102.3260   57.8950   21.5740 O.co2 246  ASP246     -0.2456
     19  N        100.0570   58.4670   28.3250 N.3   275  ASN275     -0.1240
     20  CA        99.0630   59.4430   28.7290 C.3   275  ASN275      0.1653
     21  C         98.0880   59.0560   29.8150 C.2   275  ASN275      0.2266
     22  O         97.5900   57.9330   29.8820 O.2   275  ASN275     -0.2867
     23  CB        98.3180   59.9390   27.4910 C.3   275  ASN275      0.1155
     24  CG        99.2000   60.8070   26.5950 C.2   275  ASN275      0.2627
     25  OD1      100.4050   60.5620   26.4670 O.2   275  ASN275     -0.2716
     26  ND2       98.6000   61.8090   25.9490 N.am  275  ASN275     -0.0877
     27  N        103.0330   62.8540   30.4840 N.3   294  LYS294     -0.1245
     28  CA       102.2580   63.5880   29.5030 C.3   294  LYS294      0.1561
     29  C        100.7820   63.3560   29.7530 C.2   294  LYS294      0.2260
     30  O        100.3220   62.2290   29.9600 O.2   294  LYS294     -0.2867
     31  CB       102.6860   63.2590   28.0650 C.3   294  LYS294      0.0271
     32  CG       102.8090   61.8180   27.7090 C.3   294  LYS294      0.0035
     33  CD       103.7570   61.6740   26.4890 C.3   294  LYS294      0.0206
     34  CE       103.2280   62.2840   25.1870 C.3   294  LYS294      0.1093
     35  NZ       102.1780   61.4390   24.5640 N.3   294  LYS294     -0.1314
     36  N         91.9960   61.7470   24.8720 N.3   298  GLY298     -0.1225
     37  CA        90.8950   62.1380   24.0110 C.3   298  GLY298      0.1811
     38  C         90.8430   63.5160   23.3560 C.2   298  GLY298      0.2280
     39  O         90.1120   63.6660   22.3700 O.2   298  GLY298     -0.2866
     40  N         92.8330   65.0440   21.3130 N.3   300  GLY300     -0.1210
     41  CA        93.4460   65.1480   19.9940 C.3   300  GLY300      0.1956
     42  C         92.5250   65.5020   18.8370 C.2   300  GLY300      0.2613
     43  O         91.4140   64.9820   18.7390 O.2   300  GLY300     -0.2717
     44  N         92.9920   66.3820   17.9500 N.am  301  SER301     -0.1938
     45  CA        92.2090   66.8020   16.7830 C.3   301  SER301      0.2055
     46  C         91.7450   65.6060   15.9500 C.2   301  SER301      0.2643
     47  O         90.6230   65.5770   15.4520 O.2   301  SER301     -0.2714
     48  CB        93.0380   67.7430   15.8980 C.3   301  SER301      0.2130
     49  OG        94.2290   67.1140   15.4480 O.3   301  SER301     -0.2179
     50  N         92.6250   64.6250   15.8090 N.am  302  ILE302     -0.1963
     51  CA        92.3460   63.4160   15.0450 C.3   302  ILE302      0.1727
     52  C         91.9530   62.2290   15.9400 C.2   302  ILE302      0.2616
     53  O         91.8430   61.0950   15.4710 O.2   302  ILE302     -0.2715
     54  CB        93.5900   63.0330   14.1760 C.3   302  ILE302      0.0290
     55  CG1       94.8780   63.1320   15.0040 C.3   302  ILE302      0.0022
     56  CG2       93.7090   63.9740   12.9800 C.3   302  ILE302      0.0023
     57  CD1       94.9570   62.1990   16.1910 C.3   302  ILE302      0.0001
     58  N         91.7430   62.5060   17.2270 N.am  303  CYS303     -0.1968
     59  CA        91.3800   61.4830   18.2090 C.3   303  CYS303      0.1712
     60  C         89.8820   61.2140   18.3370 C.2   303  CYS303      0.2296
     61  O         89.0720   62.1420   18.4490 O.2   303  CYS303     -0.2864
     62  CB        91.9220   61.8730   19.5870 C.3   303  CYS303      0.0983
     63  SG        91.3510   60.8100   20.9500 S.3   303  CYS303     -0.0798
     64  N         88.9120   58.6670   20.6500 N.3   305  THR305     -0.1218
     65  CA        88.7940   57.9050   21.8840 C.3   305  THR305      0.1862
     66  C         87.5230   58.2380   22.6610 C.2   305  THR305      0.2287
     67  O         86.8310   57.3440   23.1440 O.2   305  THR305     -0.2866
     68  CB        90.0180   58.1420   22.7830 C.3   305  THR305      0.1770
     69  OG1       91.1740   57.5720   22.1590 O.3   305  THR305     -0.2211
     70  CG2       89.8210   57.5090   24.1500 C.3   305  THR305      0.0375
     71  N         99.4510   67.3880   26.4180 N.3   336  ASP336     -0.1225
     72  CA        99.3900   66.7290   25.1210 C.3   336  ASP336      0.1805
     73  C         98.0380   66.7280   24.4060 C.2   336  ASP336      0.2598
     74  O         97.1280   66.0050   24.7960 O.2   336  ASP336     -0.2718
     75  CB        99.8630   65.2830   25.3180 C.3   336  ASP336      0.1424
     76  CG        99.9440   64.4990   24.0280 C.2   336  ASP336      0.3668
     77  OD1      100.0610   63.2510   24.1060 O.co2 336  ASP336     -0.2456
     78  OD2       99.9110   65.1220   22.9410 O.co2 336  ASP336     -0.2456
     79  N         97.9170   67.5410   23.3590 N.am  337  GLY337     -0.1942
     80  CA        96.6960   67.5690   22.5650 C.3   337  GLY337      0.2014
     81  C         95.5920   68.5870   22.8180 C.2   337  GLY337      0.2639
     82  O         95.5100   69.2100   23.8880 O.2   337  GLY337     -0.2714
     83  N         94.7370   68.7530   21.8090 N.am  338  GLY338     -0.1939
     84  CA        93.6140   69.6640   21.9220 C.3   338  GLY338      0.2014
     85  C         93.9440   71.1280   21.7580 C.2   338  GLY338      0.2638
     86  O         93.0600   71.9690   21.8690 O.2   338  GLY338     -0.2714
     87  N         95.2070   71.4430   21.4980 N.am  339  ILE339     -0.1977
     88  CA        95.6370   72.8270   21.3220 C.3   339  ILE339      0.1596
     89  C         95.5280   73.2670   19.8690 C.2   339  ILE339      0.2287
     90  O         96.1570   72.6810   18.9920 O.2   339  ILE339     -0.2864
     91  CB        97.0900   73.0050   21.7740 C.3   339  ILE339      0.0276
     92  CG1       97.1600   72.8870   23.2970 C.3   339  ILE339      0.0022
     93  CG2       97.6310   74.3270   21.2680 C.3   339  ILE339      0.0022
     94  CD1       98.5580   72.8970   23.8570 C.3   339  ILE339      0.0001
     95  N        102.5310   69.4200   20.4360 N.3   357  LEU357     -0.1231
     96  CA       101.7040   69.8310   19.3150 C.3   357  LEU357      0.1693
     97  C        101.8220   68.9200   18.1080 C.2   357  LEU357      0.2593
     98  O        102.9260   68.6140   17.6660 O.2   357  LEU357     -0.2718
     99  CB       102.1040   71.2380   18.9050 C.3   357  LEU357      0.0284
    100  CG       102.0930   72.2190   20.0600 C.3   357  LEU357      0.0019
    101  CD1      102.7050   73.5270   19.6160 C.3   357  LEU357      0.0001
    102  CD2      100.6700   72.3780   20.5740 C.3   357  LEU357      0.0001
    103  N        100.6780   68.5080   17.5690 N.am  358  GLY358     -0.1942
    104  CA       100.6670   67.6510   16.3980 C.3   358  GLY358      0.2014
    105  C        100.0450   68.3650   15.2130 C.2   358  GLY358      0.2639
    106  O        100.7170   68.6630   14.2260 O.2   358  GLY358     -0.2714
    107  N         98.7530   68.6440   15.3270 N.am  359  SER359     -0.1949
    108  CA        97.9930   69.3410   14.2980 C.3   359  SER359      0.1924
    109  C         98.6480   70.6370   13.8030 C.2   359  SER359      0.2314
    110  O         98.7500   70.8480   12.5980 O.2   359  SER359     -0.2863
    111  CB        96.5900   69.6460   14.8320 C.3   359  SER359      0.2116
    112  OG        95.8000   70.3450   13.8850 O.3   359  SER359     -0.2180
    113  N         97.3300   63.9300    7.6930 N.3   381  TYR381     -0.1227
    114  CA        97.5330   63.9800    9.1250 C.3   381  TYR381      0.1736
    115  C         96.6240   62.8820    9.6700 C.2   381  TYR381      0.2595
    116  O         95.4060   62.9690    9.5510 O.2   381  TYR381     -0.2718
    117  CB        97.0980   65.3320    9.6790 C.3   381  TYR381      0.0548
    118  CG        97.3620   65.4670   11.1590 C.ar  381  TYR381     -0.0200
    119  CD1       96.6090   66.3430   11.9440 C.ar  381  TYR381     -0.0009
    120  CD2       98.3730   64.7290   11.7770 C.ar  381  TYR381     -0.0009
    121  CE1       96.8520   66.4780   13.3120 C.ar  381  TYR381      0.0417
    122  CE2       98.6230   64.8560   13.1360 C.ar  381  TYR381      0.0417
    123  CZ        97.8570   65.7320   13.8960 C.ar  381  TYR381      0.1957
    124  OH        98.0950   65.8570   15.2380 O.3   381  TYR381     -0.2866
    125  N         97.2060   61.8460   10.2580 N.am  382  ARG382     -0.1966
    126  CA        96.3990   60.7500   10.7720 C.3   382  ARG382      0.1729
    127  C         96.7780   60.3870   12.2020 C.2   382  ARG382      0.2616
    128  O         97.9540   60.4500   12.5800 O.2   382  ARG382     -0.2715
    129  CB        96.5890   59.5290    9.8830 C.3   382  ARG382      0.0348
    130  CG        97.9900   58.9670    9.9860 C.3   382  ARG382      0.0492
    131  CD        98.2420   57.8720    8.9810 C.3   382  ARG382      0.2205
    132  NE        99.5350   57.2320    9.2000 N.pl3 382  ARG382     -0.0865
    133  CZ       100.0720   56.3570    8.3630 C.cat 382  ARG382      0.5346
    134  NH1       99.4250   56.0240    7.2520 N.pl3 382  ARG382      0.1354
    135  NH2      101.2450   55.8050    8.6380 N.pl3 382  ARG382      0.1354
    136  N         95.7820   60.0090   12.9990 N.am  383  GLY383     -0.1955
    137  CA        96.0620   59.6180   14.3660 C.3   383  GLY383      0.1869
    138  C         96.8030   58.2910   14.3430 C.2   383  GLY383      0.2309
    139  O         96.5780   57.4670   13.4510 O.2   383  GLY383     -0.2863
    140  N         96.2800   55.9540   16.0490 N.3   384  GLY384     -0.1225
    141  CA        95.3070   54.9260   16.3640 C.3   384  GLY384      0.1811
    142  C         94.3550   54.6860   15.2060 C.2   384  GLY384      0.2280
    143  O         93.4160   53.8960   15.3110 O.2   384  GLY384     -0.2866
    144  N         90.8710   54.1920   17.1160 N.3   396  GLU396     -0.1231
    145  CA        90.6100   55.1230   18.2080 C.3   396  GLU396      0.1699
    146  C         90.9540   56.5060   17.6680 C.2   396  GLU396      0.2592
    147  O         91.0050   57.4810   18.4090 O.2   396  GLU396     -0.2718
    148  CB        91.5170   54.8090   19.3960 C.3   396  GLU396      0.0402
    149  CG        91.2070   53.5120   20.1490 C.3   396  GLU396      0.1161
    150  CD        90.3290   53.7390   21.3720 C.2   396  GLU396      0.3649
    151  OE1       90.7300   54.5630   22.2280 O.co2 396  GLU396     -0.2457
    152  OE2       89.2600   53.0950   21.4840 O.co2 396  GLU396     -0.2457
    153  N         91.2000   56.5760   16.3660 N.am  397  GLY397     -0.1957
    154  CA        91.5410   57.8340   15.7360 C.3   397  GLY397      0.1869
    155  C         91.2140   57.8130   14.2530 C.2   397  GLY397      0.2309
    156  O         90.9180   56.7600   13.6840 O.2   397  GLY397     -0.2863
@<TRIPOS>BOND
     1   134   133    1
     2   113   114    1
     3   133   135    1
     4   133   132    2
     5   131   132    1
     6   131   130    1
     7   114   115    1
     8   114   117    1
     9   116   115    2
    10   115   125   am
    11   117   118    1
    12   129   130    1
    13   129   126    1
    14   125   126    1
    15   126   127    1
    16   118   120   ar
    17   118   119   ar
    18   120   122   ar
    19   119   121   ar
    20   127   128    2
    21   127   136   am
    22   110   109    2
    23    56    54    1
    24   136   137    1
    25   122   123   ar
    26   121   123   ar
    27   139   138    2
    28   156   155    2
    29   109   108    1
    30   112   111    1
    31   123   124    1
    32    54    55    1
    33    54    51    1
    34   106   105    2
    35   155   154    1
    36   108   111    1
    37   108   107    1
    38   138   137    1
    39    55    57    1
    40    51    50    1
    41    51    52    1
    42   142   143    2
    43   142   141    1
    44   105   107   am
    45   105   104    1
    46    49    48    1
    47    47    46    2
    48    53    52    2
    49   154   153    1
    50    50    46   am
    51    48    45    1
    52    52    58   am
    53    46    45    1
    54   140   141    1
    55   153   146   am
    56   104   103    1
    57     4     3    2
    58    45    44    1
    59     8     9    2
    60     8     7    1
    61   144   145    1
    62    58    59    1
    63   103    97   am
    64    98    97    2
    65   146   145    1
    66   146   147    2
    67     3     6   am
    68     3     2    1
    69     7     6    1
    70     7    10    1
    71    44    42   am
    72    97    96    1
    73     5     2    1
    74   145   148    1
    75    59    60    1
    76    59    62    1
    77    60    61    2
    78     1     2    1
    79    43    42    2
    80    42    41    1
    81    99    96    1
    82    99   100    1
    83    90    89    2
    84    96    95    1
    85   148   149    1
    86    62    63    1
    87   101   100    1
    88    89    88    1
    89    41    40    1
    90   100   102    1
    91   149   150    1
    92    64    65    1
    93    93    91    1
    94    88    87    1
    95    88    91    1
    96   150   152   ar
    97   150   151   ar
    98    87    85   am
    99    18    16   ar
   100    85    86    2
   101    85    84    1
   102    91    92    1
   103    83    84    1
   104    83    81   am
   105    65    66    1
   106    65    68    1
   107    69    68    1
   108    39    38    2
   109    80    81    1
   110    80    79    1
   111    16    15    1
   112    16    17   ar
   113    66    67    2
   114    68    70    1
   115    81    82    2
   116    78    76   ar
   117    15    12    1
   118    92    94    1
   119    38    37    1
   120    79    73   am
   121    14    13    2
   122    37    36    1
   123    76    77   ar
   124    76    75    1
   125    73    74    2
   126    73    72    1
   127    12    13    1
   128    12    11    1
   129    35    34    1
   130    72    75    1
   131    72    71    1
   132    34    33    1
   133    26    24   am
   134    25    24    2
   135    33    32    1
   136    24    23    1
   137    23    20    1
   138    32    31    1
   139    31    28    1
   140    19    20    1
   141    20    21    1
   142    28    29    1
   143    28    27    1
   144    29    30    2
   145    21    22    2
