@<TRIPOS>MOLECULE
tmp/1zfkA00.pdb
 140 136 0 0 0
SMALL
GASTEIGER

@<TRIPOS>ATOM
      1  N          8.6370    8.0670   11.2370 N.3    89  GLN89      -0.1245
      2  CA         8.9370    6.9180   10.3960 C.3    89  GLN89       0.1566
      3  C          8.6630    5.6380   11.1720 C.2    89  GLN89       0.2260
      4  O          8.5940    5.6300   12.3880 O.2    89  GLN89      -0.2867
      5  CB        10.3960    6.8780    9.9290 C.3    89  GLN89       0.0367
      6  CG        11.4330    7.0090   11.0270 C.3    89  GLN89       0.0905
      7  CD        12.2230    5.7720   11.3430 C.2    89  GLN89       0.2608
      8  OE1       11.7490    4.6450   11.1870 O.2    89  GLN89      -0.2717
      9  NE2       13.4620    5.9380   11.7890 N.am   89  GLN89      -0.0878
     10  N         10.0570    1.3300   10.9190 N.3    91  HIS91      -0.1241
     11  CA        10.9320    0.3180   10.3640 C.3    91  HIS91       0.1621
     12  C         10.8390   -0.9660   11.1970 C.2    91  HIS91       0.2264
     13  O         10.2030   -0.9880   12.2490 O.2    91  HIS91      -0.2867
     14  CB        12.3790    0.8080   10.3020 C.3    91  HIS91       0.0745
     15  CG        12.8900    1.1100   11.6820 C.ar   91  HIS91       0.0817
     16  ND1       12.7150    2.3350   12.2990 N.ar   91  HIS91      -0.2268
     17  CD2       13.5500    0.3200   12.5680 C.ar   91  HIS91       0.1154
     18  CE1       13.2640    2.2560   13.5120 C.ar   91  HIS91       0.1986
     19  NE2       13.7800    1.0550   13.7100 N.ar   91  HIS91      -0.2212
     20  N         13.1640   -4.6710   12.4990 N.3    93  HIS93      -0.1241
     21  CA        14.3520   -5.4840   12.6720 C.3    93  HIS93       0.1621
     22  C         13.9640   -6.9480   12.5750 C.2    93  HIS93       0.2264
     23  O         12.9020   -7.2970   13.0900 O.2    93  HIS93      -0.2867
     24  CB        15.0220   -5.1900   14.0030 C.3    93  HIS93       0.0745
     25  CG        15.2780   -3.7430   14.2570 C.ar   93  HIS93       0.0817
     26  ND1       16.5370   -3.2040   14.0420 N.ar   93  HIS93      -0.2268
     27  CD2       14.4920   -2.7270   14.6840 C.ar   93  HIS93       0.1154
     28  CE1       16.4840   -1.8980   14.3520 C.ar   93  HIS93       0.1986
     29  NE2       15.2630   -1.5800   14.7360 N.ar   93  HIS93      -0.2212
     30  N          9.2500   -0.8360   14.8320 N.3   116  HIS116     -0.1241
     31  CA         9.5330    0.3880   15.5900 C.3   116  HIS116      0.1621
     32  C          8.8200    1.5550   14.9450 C.2   116  HIS116      0.2264
     33  O          9.1530    1.9250   13.8130 O.2   116  HIS116     -0.2867
     34  CB        11.0430    0.6750   15.6150 C.3   116  HIS116      0.0745
     35  CG        11.7410   -0.2970   16.5410 C.ar  116  HIS116      0.0817
     36  ND1       13.0750   -0.5270   16.5710 N.ar  116  HIS116     -0.2268
     37  CD2       11.1870   -1.0870   17.5080 C.ar  116  HIS116      0.1154
     38  CE1       13.3400   -1.4280   17.4890 C.ar  116  HIS116      0.1986
     39  NE2       12.2140   -1.7980   18.0870 N.ar  116  HIS116     -0.2212
     40  N          8.4750    5.4000   15.2250 N.3   118  VAL118     -0.1245
     41  CA         9.3510    6.3870   15.8440 C.3   118  VAL118      0.1561
     42  C          8.6790    7.7540   15.8880 C.2   118  VAL118      0.2260
     43  O          8.2410    8.2430   14.8520 O.2   118  VAL118     -0.2867
     44  CB        10.6830    6.4600   15.0750 C.3   118  VAL118      0.0252
     45  CG1       11.5910    7.4660   15.7420 C.3   118  VAL118      0.0019
     46  CG2       11.3290    5.0920   14.9440 C.3   118  VAL118      0.0019
     47  N         13.1430   16.8000   14.8610 N.3   127  PHE127     -0.1227
     48  CA        13.7680   15.5440   15.2980 C.3   127  PHE127      0.1736
     49  C         15.1940   15.7540   15.7640 C.2   127  PHE127      0.2596
     50  O         15.6780   15.1940   16.7540 O.2   127  PHE127     -0.2718
     51  CB        13.6590   14.5480   14.1380 C.3   127  PHE127      0.0547
     52  CG        14.2710   13.1900   14.4580 C.ar  127  PHE127     -0.0202
     53  CD1       13.5040   12.1970   15.0420 C.ar  127  PHE127     -0.0042
     54  CD2       15.5870   12.9000   14.1930 C.ar  127  PHE127     -0.0042
     55  CE1       14.0500   10.9700   15.3630 C.ar  127  PHE127     -0.0003
     56  CE2       16.1460   11.6680   14.5080 C.ar  127  PHE127     -0.0003
     57  CZ        15.3860   10.6840   15.0960 C.ar  127  PHE127     -0.0000
     58  N         15.9620   16.5870   15.0440 N.am  128  GLY128     -0.1957
     59  CA        17.3660   16.7510   15.3830 C.3   128  GLY128      0.1869
     60  C         17.5720   17.3730   16.7450 C.2   128  GLY128      0.2309
     61  O         18.5090   17.0320   17.4580 O.2   128  GLY128     -0.2863
     62  N         16.6100   14.6960   19.5180 N.3   131  VAL131     -0.1245
     63  CA        17.5710   13.6790   19.9370 C.3   131  VAL131      0.1561
     64  C         18.7260   14.2770   20.7270 C.2   131  VAL131      0.2260
     65  O         19.7730   13.6420   20.9190 O.2   131  VAL131     -0.2867
     66  CB        18.1200   12.8640   18.7580 C.3   131  VAL131      0.0252
     67  CG1       17.0070   12.1410   18.0220 C.3   131  VAL131      0.0019
     68  CG2       18.8990   13.7280   17.7850 C.3   131  VAL131      0.0019
     69  N          9.3410    5.5580   21.1080 N.3   139  VAL139     -0.1245
     70  CA         9.2920    4.5270   20.0800 C.3   139  VAL139      0.1561
     71  C          8.3480    3.4240   20.5600 C.2   139  VAL139      0.2260
     72  O          8.4900    2.9520   21.6800 O.2   139  VAL139     -0.2867
     73  CB        10.6260    3.9150   19.7330 C.3   139  VAL139      0.0252
     74  CG1       10.4350    2.8250   18.6580 C.3   139  VAL139      0.0019
     75  CG2       11.5700    4.9830   19.2220 C.3   139  VAL139      0.0019
     76  N         18.2430    4.9190   21.2600 N.3   194  LEU194     -0.1231
     77  CA        18.1860    4.3360   19.9260 C.3   194  LEU194      0.1693
     78  C         18.9480    3.0050   19.9520 C.2   194  LEU194      0.2593
     79  O         19.9390    2.8780   20.6820 O.2   194  LEU194     -0.2718
     80  CB        18.8570    5.2420   18.9130 C.3   194  LEU194      0.0284
     81  CG        18.3670    6.6840   18.8600 C.3   194  LEU194      0.0019
     82  CD1       19.2060    7.4850   17.8650 C.3   194  LEU194      0.0001
     83  CD2       16.9110    6.7500   18.4930 C.3   194  LEU194      0.0001
     84  N         18.5190    2.0400   19.1510 N.am  195  THR195     -0.1939
     85  CA        19.1570    0.7290   19.1220 C.3   195  THR195      0.2028
     86  C         20.1980    0.5690   18.0220 C.2   195  THR195      0.2643
     87  O         20.7940   -0.5040   17.8980 O.2   195  THR195     -0.2714
     88  CB        18.1300   -0.4190   18.9860 C.3   195  THR195      0.1808
     89  OG1       17.4760   -0.3730   17.7290 O.3   195  THR195     -0.2208
     90  CG2       17.0740   -0.3280   20.0590 C.3   195  THR195      0.0379
     91  N         20.4450    1.6000   17.2370 N.am  196  THR196     -0.1937
     92  CA        21.4830    1.7010   16.2530 C.3   196  THR196      0.2013
     93  C         22.3040    2.9700   16.5590 C.2   196  THR196      0.2484
     94  O         21.7870    3.8820   17.1840 O.2   196  THR196     -0.2729
     95  CB        20.9780    1.8680   14.8090 C.3   196  THR196      0.1807
     96  OG1       20.3130    3.1290   14.6790 O.3   196  THR196     -0.2208
     97  CG2       19.9880    0.7780   14.4510 C.3   196  THR196      0.0379
     98  N         23.5440    2.9830   16.1130 N.am  197  PRO197     -0.2715
     99  CA        24.2870    4.2600   16.1710 C.3   197  PRO197      0.1521
    100  C         23.4590    5.3810   15.5770 C.2   197  PRO197      0.2440
    101  O         22.7300    5.1320   14.6110 O.2   197  PRO197     -0.2731
    102  CB        25.5250    3.8980   15.3390 C.3   197  PRO197      0.0310
    103  CG        25.7360    2.4280   15.5500 C.3   197  PRO197      0.0237
    104  CD        24.3210    1.8780   15.5790 C.3   197  PRO197      0.0939
    105  N         23.4810    6.5720   16.1630 N.am  198  PRO198     -0.2727
    106  CA        24.3350    6.9420   17.2860 C.3   198  PRO198      0.1402
    107  C         23.9780    6.5380   18.7160 C.2   198  PRO198      0.2269
    108  O         24.6830    7.0220   19.6140 O.2   198  PRO198     -0.2865
    109  CB        24.2970    8.4800   17.2140 C.3   198  PRO198      0.0296
    110  CG        22.9970    8.8300   16.5840 C.3   198  PRO198      0.0237
    111  CD        22.6670    7.6920   15.6550 C.3   198  PRO198      0.0939
    112  N         21.7920    7.1600   20.9120 N.3   200  LEU200     -0.1245
    113  CA        21.4830    8.3110   21.7620 C.3   200  LEU200      0.1561
    114  C         20.4210    7.9560   22.7740 C.2   200  LEU200      0.2260
    115  O         19.4300    7.3050   22.4510 O.2   200  LEU200     -0.2867
    116  CB        21.0390    9.4970   20.8980 C.3   200  LEU200      0.0270
    117  CG        22.1390   10.0660   19.9920 C.3   200  LEU200      0.0019
    118  CD1       21.5830   11.1570   19.1110 C.3   200  LEU200      0.0001
    119  CD2       23.3310   10.5780   20.8010 C.3   200  LEU200      0.0001
    120  N         15.1390    8.0620   24.3490 N.3   203  VAL203     -0.1245
    121  CA        13.9110    7.3840   24.0050 C.3   203  VAL203      0.1561
    122  C         13.1340    6.8880   25.2080 C.2   203  VAL203      0.2260
    123  O         13.6960    6.2660   26.1020 O.2   203  VAL203     -0.2867
    124  CB        14.1520    6.1440   23.1080 C.3   203  VAL203      0.0252
    125  CG1       12.8400    5.4480   22.7760 C.3   203  VAL203      0.0019
    126  CG2       14.8950    6.5680   21.8430 C.3   203  VAL203      0.0019
    127  N         10.7350    4.1230   25.5860 N.3   205  TRP205     -0.1241
    128  CA        10.2550    2.9100   24.9580 C.3   205  TRP205      0.1605
    129  C          8.9030    2.4910   25.5190 C.2   205  TRP205      0.2264
    130  O          8.6380    2.4500   26.7310 O.2   205  TRP205     -0.2867
    131  CB        11.2390    1.7410   25.1610 C.3   205  TRP205      0.0550
    132  CG        12.3710    1.9150   24.1950 C.ar  205  TRP205      0.0003
    133  CD1       13.5970    2.4910   24.3990 C.ar  205  TRP205      0.0946
    134  CD2       12.3250    1.4870   22.8190 C.ar  205  TRP205      0.0152
    135  NE1       14.3140    2.4440   23.2390 N.ar  205  TRP205     -0.2442
    136  CE2       13.5840    1.8410   22.2540 C.ar  205  TRP205      0.0810
    137  CE3       11.3690    0.8500   22.0330 C.ar  205  TRP205      0.0012
    138  CZ2       13.8530    1.5520   20.9210 C.ar  205  TRP205      0.0191
    139  CZ3       11.6600    0.5730   20.7120 C.ar  205  TRP205      0.0001
    140  CH2       12.8980    0.9280   20.1770 C.ar  205  TRP205      0.0015
@<TRIPOS>BOND
     1     5     2    1
     2     5     6    1
     3    14    11    1
     4    14    15    1
     5    11    10    1
     6    11    12    1
     7     2     3    1
     8     2     1    1
     9     6     7    1
    10     3     4    2
    11     8     7    2
    12    12    13    2
    13     7     9   am
    14    15    16   ar
    15    15    17   ar
    16    16    18   ar
    17    20    21    1
    18    17    19   ar
    19    22    21    1
    20    22    23    2
    21    21    24    1
    22    18    19   ar
    23    33    32    2
    24    24    25    1
    25    26    25   ar
    26    26    28   ar
    27    51    52    1
    28    51    48    1
    29    54    52   ar
    30    54    56   ar
    31    25    27   ar
    32    28    29   ar
    33    97    95    1
    34    52    53   ar
    35    56    57   ar
    36   101   100    2
    37    96    95    1
    38    27    29   ar
    39    95    92    1
    40    30    31    1
    41    43    42    2
    42    47    48    1
    43    46    44    1
    44    32    31    1
    45    53    55   ar
    46    58    59    1
    47    58    49   am
    48    44    45    1
    49    44    41    1
    50    57    55   ar
    51    40    41    1
    52    48    49    1
    53   102   103    1
    54   102    99    1
    55    59    60    1
    56   103   104    1
    57   100   105   am
    58   100    99    1
    59   104    98    1
    60    31    34    1
    61    34    35    1
    62   111   105    1
    63   111   110    1
    64    49    50    2
    65    41    42    1
    66    98    99    1
    67    98    93   am
    68   105   106    1
    69    92    93    1
    70    92    91    1
    71    35    36   ar
    72    35    37   ar
    73    93    94    2
    74    36    38   ar
    75   110   109    1
    76    60    61    2
    77   109   106    1
    78    91    86   am
    79   106   107    1
    80    38    39   ar
    81    37    39   ar
    82    89    88    1
    83    68    66    1
    84    82    81    1
    85    87    86    2
    86    86    85    1
    87    67    66    1
    88    83    81    1
    89    74    73    1
    90   107   108    2
    91    66    63    1
    92    81    80    1
    93    80    77    1
    94    88    85    1
    95    88    90    1
    96   118   117    1
    97    85    84    1
    98    84    78   am
    99    75    73    1
   100    62    63    1
   101    73    70    1
   102    77    78    1
   103    77    76    1
   104    63    64    1
   105    78    79    2
   106   117   119    1
   107   117   116    1
   108    70    71    1
   109    70    69    1
   110   140   139   ar
   111   140   138   ar
   112    71    72    2
   113   139   137   ar
   114    64    65    2
   115   116   113    1
   116   112   113    1
   117   138   136   ar
   118   113   114    1
   119   126   124    1
   120   137   134   ar
   121   136   134   ar
   122   136   135   ar
   123   115   114    2
   124   125   124    1
   125   134   132   ar
   126   124   121    1
   127   135   133   ar
   128   121   120    1
   129   121   122    1
   130   132   133   ar
   131   132   131    1
   132   128   131    1
   133   128   129    1
   134   128   127    1
   135   122   123    2
   136   129   130    2
