@<TRIPOS>MOLECULE
tmp/1zfkA01.pdb
 94 90 0 0 0
SMALL
GASTEIGER

@<TRIPOS>ATOM
      1  N          4.8600    9.0130    3.0250 N.3    54  LEU54      -0.1245
      2  CA         5.4830    9.6540    1.8600 C.3    54  LEU54       0.1561
      3  C          6.1690    8.6990    0.9140 C.2    54  LEU54       0.2260
      4  O          6.0360    8.6560   -0.3030 O.2    54  LEU54      -0.2867
      5  CB         6.5380   10.6560    2.3210 C.3    54  LEU54       0.0270
      6  CG         6.0340   11.9220    3.0160 C.3    54  LEU54       0.0019
      7  CD1        7.1890   12.6800    3.6420 C.3    54  LEU54       0.0001
      8  CD2        5.3000   12.7990    2.0150 C.3    54  LEU54       0.0001
      9  N         12.3380    3.8380    2.0350 N.3    57  LEU57      -0.1245
     10  CA        13.7460    3.9360    1.7830 C.3    57  LEU57       0.1561
     11  C         14.5290    2.7410    2.3430 C.2    57  LEU57       0.2260
     12  O         14.3410    2.3910    3.5120 O.2    57  LEU57      -0.2867
     13  CB        14.3150    5.1680    2.4930 C.3    57  LEU57       0.0270
     14  CG        15.8100    5.4170    2.4640 C.3    57  LEU57       0.0019
     15  CD1       16.3400    5.5700    1.0520 C.3    57  LEU57       0.0001
     16  CD2       16.1590    6.6610    3.2890 C.3    57  LEU57       0.0001
     17  N         12.7950    2.1740    5.9200 N.3    64  ASN64      -0.1240
     18  CA        11.9550    3.0770    6.6770 C.3    64  ASN64       0.1653
     19  C         10.7760    3.5360    5.8370 C.2    64  ASN64       0.2266
     20  O         11.0020    3.9760    4.6970 O.2    64  ASN64      -0.2867
     21  CB        12.7880    4.3230    7.0440 C.3    64  ASN64       0.1155
     22  CG        13.8200    4.0650    8.1350 C.2    64  ASN64       0.2627
     23  OD1       13.9540    2.9300    8.5430 O.2    64  ASN64      -0.2716
     24  ND2       14.4990    5.1320    8.5000 N.am   64  ASN64      -0.0877
     25  N          8.4360    6.5730    5.6810 N.3    66  GLU66      -0.1182
     26  CA         8.6170    7.9230    6.1510 C.3    66  GLU66       0.1915
     27  C          7.3010    8.6920    6.0680 C.2    66  GLU66       0.2634
     28  O          6.5820    8.4680    5.0880 O.2    66  GLU66      -0.2714
     29  CB         9.6850    8.6470    5.3230 C.2    66  GLU66       0.0085
     30  CG        11.0700    8.0530    5.4000 C.2    66  GLU66       0.0835
     31  CD        12.0160    8.4550    4.2750 C.2    66  GLU66       0.3877
     32  OE1       11.5010    8.9890    3.2700 O.co2  66  GLU66      -0.2406
     33  OE2       13.2290    8.2360    4.4280 O.co2  66  GLU66      -0.2406
     34  N          7.0330    9.5360    7.0480 N.am   67  PHE67      -0.1959
     35  CA         5.7930   10.3060    7.1460 C.3    67  PHE67       0.1771
     36  C          6.0700   11.8010    7.0510 C.2    67  PHE67       0.2620
     37  O          7.1500   12.2150    7.4450 O.2    67  PHE67      -0.2715
     38  CB         5.0580   10.0020    8.4630 C.3    67  PHE67       0.0574
     39  CG         4.5150    8.5800    8.4280 C.ar   67  PHE67      -0.0200
     40  CD1        5.3810    7.5200    8.6640 C.ar   67  PHE67      -0.0042
     41  CD2        3.1830    8.3620    8.1330 C.ar   67  PHE67      -0.0042
     42  CE1        4.9030    6.2310    8.6010 C.ar   67  PHE67      -0.0003
     43  CE2        2.7100    7.0570    8.0770 C.ar   67  PHE67      -0.0003
     44  CZ         3.5680    6.0040    8.2830 C.ar   67  PHE67      -0.0000
     45  N          5.0600   12.5020    6.5510 N.am   68  ASP68      -0.1957
     46  CA         5.0540   13.9610    6.7030 C.3    68  ASP68       0.1840
     47  C          4.8950   14.3120    8.1760 C.2    68  ASP68       0.2622
     48  O          3.8280   14.0430    8.7470 O.2    68  ASP68      -0.2715
     49  CB         3.8990   14.5220    5.8760 C.3    68  ASP68       0.1450
     50  CG         3.6890   16.0210    5.9720 C.2    68  ASP68       0.3671
     51  OD1        4.2870   16.6770    6.8390 O.co2  68  ASP68      -0.2456
     52  OD2        2.8730   16.5580    5.1820 O.co2  68  ASP68      -0.2456
     53  N          5.9190   14.9240    8.7860 N.am   69  ASP69      -0.1957
     54  CA         5.8230   15.2820   10.1980 C.3    69  ASP69       0.1840
     55  C          5.9240   16.8040   10.3980 C.2    69  ASP69       0.2622
     56  O          6.3690   17.2570   11.4540 O.2    69  ASP69      -0.2715
     57  CB         6.9070   14.6010   11.0260 C.3    69  ASP69       0.1450
     58  CG         8.3030   15.0290   10.6830 C.2    69  ASP69       0.3671
     59  OD1        8.5450   15.6770    9.6230 O.co2  69  ASP69      -0.2456
     60  OD2        9.2370   14.7090   11.4410 O.co2  69  ASP69      -0.2456
     61  N          5.4830   17.5000    9.3680 N.am   70  SER70      -0.1950
     62  CA         5.4120   18.9610    9.3500 C.3    70  SER70       0.1924
     63  C          4.2110   19.5210   10.1060 C.2    70  SER70       0.2314
     64  O          4.0700   20.7470   10.2310 O.2    70  SER70      -0.2863
     65  CB         5.3890   19.4270    7.8950 C.3    70  SER70       0.2116
     66  OG         4.1310   19.1480    7.2910 O.3    70  SER70      -0.2180
     67  N          7.3180   10.0520   12.7480 N.3    88  ILE88      -0.1231
     68  CA         8.2050   10.4450   11.6590 C.3    88  ILE88       0.1692
     69  C          8.5190    9.2950   10.7170 C.2    88  ILE88       0.2591
     70  O          8.6170    9.4490    9.5020 O.2    88  ILE88      -0.2718
     71  CB         9.4950   11.0910   12.1930 C.3    88  ILE88       0.0266
     72  CG1       10.4720   11.4480   11.0630 C.3    88  ILE88       0.0019
     73  CG2       10.2580   10.2840   13.2370 C.3    88  ILE88       0.0020
     74  CD1       11.5430   12.4410   11.4510 C.3    88  ILE88       0.0001
     75  N          8.6370    8.0670   11.2370 N.am   89  GLN89      -0.1979
     76  CA         8.9370    6.9180   10.3960 C.3    89  GLN89       0.1601
     77  C          8.6630    5.6380   11.1720 C.2    89  GLN89       0.2287
     78  O          8.5940    5.6300   12.3880 O.2    89  GLN89      -0.2864
     79  CB        10.3960    6.8780    9.9290 C.3    89  GLN89       0.0394
     80  CG        11.4330    7.0090   11.0270 C.3    89  GLN89       0.0908
     81  CD        12.2230    5.7720   11.3430 C.2    89  GLN89       0.2608
     82  OE1       11.7490    4.6450   11.1870 O.2    89  GLN89      -0.2717
     83  NE2       13.4620    5.9380   11.7890 N.am   89  GLN89      -0.0878
     84  N         13.1430   16.8000   14.8610 N.3   127  PHE127     -0.1241
     85  CA        13.7680   15.5440   15.2980 C.3   127  PHE127      0.1605
     86  C         15.1940   15.7540   15.7640 C.2   127  PHE127      0.2264
     87  O         15.6780   15.1940   16.7540 O.2   127  PHE127     -0.2867
     88  CB        13.6590   14.5480   14.1380 C.3   127  PHE127      0.0534
     89  CG        14.2710   13.1900   14.4580 C.ar  127  PHE127     -0.0203
     90  CD1       13.5040   12.1970   15.0420 C.ar  127  PHE127     -0.0042
     91  CD2       15.5870   12.9000   14.1930 C.ar  127  PHE127     -0.0042
     92  CE1       14.0500   10.9700   15.3630 C.ar  127  PHE127     -0.0003
     93  CE2       16.1460   11.6680   14.5080 C.ar  127  PHE127     -0.0003
     94  CZ        15.3860   10.6840   15.0960 C.ar  127  PHE127     -0.0000
@<TRIPOS>BOND
     1     4     3    2
     2     3     2    1
     3    15    14    1
     4    10     9    1
     5    10    11    1
     6    10    13    1
     7     2     5    1
     8     2     1    1
     9     8     6    1
    10     5     6    1
    11    11    12    2
    12    14    13    1
    13    14    16    1
    14     6     7    1
    15    32    31   ar
    16    31    33   ar
    17    31    30    1
    18    20    19    2
    19    28    27    2
    20    52    50   ar
    21    29    30    2
    22    29    26    1
    23    25    26    1
    24    19    18    1
    25    49    50    1
    26    49    46    1
    27    17    18    1
    28    50    51   ar
    29    27    26    1
    30    27    34   am
    31    45    46    1
    32    45    36   am
    33    18    21    1
    34    46    47    1
    35    21    22    1
    36    34    35    1
    37    36    35    1
    38    36    37    2
    39    35    38    1
    40    66    65    1
    41    65    62    1
    42    43    41   ar
    43    43    44   ar
    44    41    39   ar
    45    22    24   am
    46    22    23    2
    47    47    48    2
    48    47    53   am
    49    44    42   ar
    50    39    38    1
    51    39    40   ar
    52    42    40   ar
    53    53    54    1
    54    62    61    1
    55    62    63    1
    56    61    55   am
    57    70    69    2
    58    59    58   ar
    59    79    76    1
    60    79    80    1
    61    63    64    2
    62    54    55    1
    63    54    57    1
    64    76    77    1
    65    76    75    1
    66    55    56    2
    67    58    57    1
    68    58    60   ar
    69    69    75   am
    70    69    68    1
    71    80    81    1
    72    72    74    1
    73    72    71    1
    74    77    78    2
    75    82    81    2
    76    81    83   am
    77    68    71    1
    78    68    67    1
    79    71    73    1
    80    88    89    1
    81    88    85    1
    82    91    89   ar
    83    91    93   ar
    84    89    90   ar
    85    93    94   ar
    86    84    85    1
    87    90    92   ar
    88    94    92   ar
    89    85    86    1
    90    86    87    2
