@<TRIPOS>MOLECULE
tmp/1zfnA00.pdb
 203 193 0 0 0
SMALL
GASTEIGER

@<TRIPOS>ATOM
      1  N        -59.1040  179.7850   12.5030 N.3    34  ILE34      -0.1231
      2  CA       -59.2600  178.3340   12.3930 C.3    34  ILE34       0.1692
      3  C        -60.3690  177.8900   13.3600 C.2    34  ILE34       0.2593
      4  O        -60.2010  177.9510   14.5760 O.2    34  ILE34      -0.2718
      5  CB       -57.9590  177.5370   12.7710 C.3    34  ILE34       0.0266
      6  CG1      -56.6890  178.2170   12.2540 C.3    34  ILE34       0.0019
      7  CG2      -58.0040  176.1690   12.1380 C.3    34  ILE34       0.0020
      8  CD1      -56.2600  179.3890   13.0750 C.3    34  ILE34       0.0001
      9  N        -61.5000  177.4490   12.8230 N.am   35  GLY35      -0.1942
     10  CA       -62.5890  177.0110   13.6770 C.3    35  GLY35       0.2014
     11  C        -63.7210  178.0170   13.7160 C.2    35  GLY35       0.2639
     12  O        -63.5080  179.1710   14.0980 O.2    35  GLY35      -0.2714
     13  N        -64.9270  177.5940   13.3400 N.am   36  LEU36      -0.1963
     14  CA       -66.0630  178.5080   13.3250 C.3    36  LEU36       0.1728
     15  C        -67.2150  178.0280   14.2120 C.2    36  LEU36       0.2617
     16  O        -68.3700  177.9340   13.7880 O.2    36  LEU36      -0.2715
     17  CB       -66.5290  178.7210   11.8760 C.3    36  LEU36       0.0311
     18  CG       -65.4470  179.2150   10.8940 C.3    36  LEU36       0.0022
     19  CD1      -65.9980  179.1970    9.4730 C.3    36  LEU36       0.0001
     20  CD2      -64.9810  180.6140   11.2810 C.3    36  LEU36       0.0001
     21  N        -66.8750  177.7360   15.4610 N.am   37  GLY37      -0.1940
     22  CA       -67.8590  177.2810   16.4150 C.3    37  GLY37       0.2014
     23  C        -68.2540  178.3600   17.4060 C.2    37  GLY37       0.2639
     24  O        -68.6100  179.4720   17.0180 O.2    37  GLY37      -0.2714
     25  N        -68.1790  178.0270   18.6910 N.am   38  GLY38      -0.1939
     26  CA       -68.5570  178.9540   19.7410 C.3    38  GLY38       0.2014
     27  C        -67.6420  180.1430   19.8990 C.2    38  GLY38       0.2638
     28  O        -68.0910  181.2150   20.2800 O.2    38  GLY38      -0.2714
     29  N        -66.3590  179.9530   19.6280 N.am   39  LEU39      -0.1977
     30  CA       -65.3960  181.0420   19.7350 C.3    39  LEU39       0.1596
     31  C        -65.2860  181.7910   18.4060 C.2    39  LEU39       0.2287
     32  O        -65.4620  183.0090   18.3590 O.2    39  LEU39      -0.2864
     33  CB       -64.0200  180.5050   20.1060 C.3    39  LEU39       0.0297
     34  CG       -63.7860  179.8050   21.4440 C.3    39  LEU39       0.0022
     35  CD1      -62.5070  178.9920   21.3050 C.3    39  LEU39       0.0001
     36  CD2      -63.6830  180.8000   22.6020 C.3    39  LEU39       0.0001
     37  N        -61.6150  179.0030    8.3060 N.3    58  ALA58      -0.1231
     38  CA       -61.3890  177.5700    8.1100 C.3    58  ALA58       0.1694
     39  C        -62.1980  176.6830    9.0470 C.2    58  ALA58       0.2592
     40  O        -62.1480  176.8330   10.2680 O.2    58  ALA58      -0.2718
     41  CB       -59.9020  177.2520    8.2690 C.3    58  ALA58       0.0304
     42  N        -62.9460  175.7550    8.4660 N.am   59  ASP59      -0.1960
     43  CA       -63.7300  174.8290    9.2600 C.3    59  ASP59       0.1840
     44  C        -64.2300  173.6900    8.3980 C.2    59  ASP59       0.2622
     45  O        -64.8230  173.9050    7.3340 O.2    59  ASP59      -0.2715
     46  CB       -64.9130  175.5270    9.9300 C.3    59  ASP59       0.1450
     47  CG       -65.4730  174.7230   11.0960 C.2    59  ASP59       0.3671
     48  OD1      -65.8970  173.5690   10.8750 O.co2  59  ASP59      -0.2456
     49  OD2      -65.4810  175.2440   12.2330 O.co2  59  ASP59      -0.2456
     50  N        -64.0010  172.4740    8.8910 N.am   60  ASP60      -0.1957
     51  CA       -64.3810  171.2550    8.1920 C.3    60  ASP60       0.1840
     52  C        -65.7440  170.6840    8.5870 C.2    60  ASP60       0.2622
     53  O        -66.2230  169.7430    7.9650 O.2    60  ASP60      -0.2715
     54  CB       -63.2990  170.2010    8.4200 C.3    60  ASP60       0.1450
     55  CG       -63.3170  169.1170    7.3720 C.2    60  ASP60       0.3671
     56  OD1      -62.4710  168.2070    7.4590 O.co2  60  ASP60      -0.2456
     57  OD2      -64.1680  169.1730    6.4590 O.co2  60  ASP60      -0.2456
     58  N        -66.3770  171.2650    9.6000 N.am   61  ASP61      -0.1971
     59  CA       -67.6700  170.7700   10.0750 C.3    61  ASP61       0.1709
     60  C        -68.8830  171.4000    9.3740 C.2    61  ASP61       0.2293
     61  O        -68.7580  172.3770    8.6340 O.2    61  ASP61      -0.2864
     62  CB       -67.7770  171.0170   11.5840 C.3    61  ASP61       0.1436
     63  CG       -68.5690  169.9400   12.3070 C.2    61  ASP61       0.3671
     64  OD1      -69.4860  169.3490   11.7030 O.co2  61  ASP61      -0.2456
     65  OD2      -68.2770  169.6970   13.4960 O.co2  61  ASP61      -0.2456
     66  N        -74.8320  171.9430   12.8530 N.3    64  HIS64      -0.1241
     67  CA       -75.7140  170.9980   13.5290 C.3    64  HIS64       0.1621
     68  C        -76.6430  171.7640   14.4460 C.2    64  HIS64       0.2264
     69  O        -76.3100  172.8510   14.9120 O.2    64  HIS64      -0.2867
     70  CB       -74.8970  170.0020   14.3380 C.3    64  HIS64       0.0745
     71  CG       -73.8210  169.3330   13.5470 C.ar   64  HIS64       0.0817
     72  ND1      -74.0860  168.5470   12.4460 N.ar   64  HIS64      -0.2268
     73  CD2      -72.4730  169.3470   13.6840 C.ar   64  HIS64       0.1154
     74  CE1      -72.9480  168.1070   11.9380 C.ar   64  HIS64       0.1986
     75  NE2      -71.9540  168.5770   12.6710 N.ar   64  HIS64      -0.2212
     76  N        -77.5170  171.4000   17.5930 N.3    66  SER66      -0.1202
     77  CA       -77.0230  171.7280   18.9300 C.3    66  SER66       0.2020
     78  C        -76.1230  172.9550   18.9420 C.2    66  SER66       0.2618
     79  O        -75.8650  173.5350   19.9980 O.2    66  SER66      -0.2717
     80  CB       -76.2650  170.5410   19.5410 C.3    66  SER66       0.2103
     81  OG       -75.0200  170.3150   18.9070 O.3    66  SER66      -0.2182
     82  N        -75.6420  173.3470   17.7650 N.am   67  ASN67      -0.1974
     83  CA       -74.7610  174.5010   17.6510 C.3    67  ASN67       0.1688
     84  C        -75.5260  175.7920   17.8960 C.2    67  ASN67       0.2292
     85  O        -75.0320  176.7090   18.5510 O.2    67  ASN67      -0.2864
     86  CB       -74.1210  174.5540   16.2600 C.3    67  ASN67       0.1181
     87  CG       -73.2200  173.3680   15.9800 C.2    67  ASN67       0.2629
     88  OD1      -72.5800  172.8250   16.8820 O.2    67  ASN67      -0.2716
     89  ND2      -73.1450  172.9760   14.7160 N.am   67  ASN67      -0.0877
     90  N        -75.2160  178.6420   20.7250 N.3    70  ARG70      -0.1231
     91  CA       -74.1200  179.5560   21.0120 C.3    70  ARG70       0.1694
     92  C        -73.3080  180.0390   19.8000 C.2    70  ARG70       0.2591
     93  O        -72.5020  180.9790   19.9090 O.2    70  ARG70      -0.2718
     94  CB       -73.1790  178.8890   22.0120 C.3    70  ARG70       0.0321
     95  CG       -72.2530  177.8750   21.3690 C.3    70  ARG70       0.0489
     96  CD       -71.6550  176.9380   22.3760 C.3    70  ARG70       0.2205
     97  NE       -72.0030  175.5750   22.0070 N.pl3  70  ARG70      -0.0865
     98  CZ       -71.1460  174.7010   21.4990 C.cat  70  ARG70       0.5346
     99  NH1      -69.8710  175.0460   21.3130 N.pl3  70  ARG70       0.1354
    100  NH2      -71.5780  173.4940   21.1360 N.pl3  70  ARG70       0.1354
    101  N        -73.4920  179.3890   18.6590 N.am   71  GLN71      -0.1979
    102  CA       -72.7730  179.7860   17.4670 C.3    71  GLN71       0.1601
    103  C        -73.6940  180.7490   16.7300 C.2    71  GLN71       0.2287
    104  O        -74.2990  180.4170   15.7090 O.2    71  GLN71      -0.2864
    105  CB       -72.4430  178.5540   16.6370 C.3    71  GLN71       0.0394
    106  CG       -71.9810  177.4030   17.5140 C.3    71  GLN71       0.0908
    107  CD       -71.1800  176.3530   16.7770 C.2    71  GLN71       0.2608
    108  OE1      -71.3980  176.1040   15.5950 O.2    71  GLN71      -0.2717
    109  NE2      -70.2560  175.7110   17.4860 N.am   71  GLN71      -0.0878
    110  N        -70.1860  174.8290    7.6020 N.3    83  LYS83      -0.1245
    111  CA       -69.9180  176.0010    8.4120 C.3    83  LYS83       0.1561
    112  C        -69.1710  177.1260    7.7150 C.2    83  LYS83       0.2260
    113  O        -69.6170  178.2710    7.7450 O.2    83  LYS83      -0.2867
    114  CB       -69.1690  175.5820    9.6780 C.3    83  LYS83       0.0271
    115  CG       -70.0350  174.8330   10.6740 C.3    83  LYS83       0.0035
    116  CD       -69.2990  174.5780   11.9890 C.3    83  LYS83       0.0206
    117  CE       -70.2520  174.0460   13.0640 C.3    83  LYS83       0.1093
    118  NZ       -69.6620  174.0430   14.4350 N.3    83  LYS83      -0.1314
    119  N        -62.1160  172.7520    5.3110 N.3   105  GLN105     -0.1231
    120  CA       -61.1760  171.6760    5.6220 C.3   105  GLN105      0.1698
    121  C        -60.6060  171.7620    7.0380 C.2   105  GLN105      0.2592
    122  O        -60.9330  172.6690    7.7950 O.2   105  GLN105     -0.2718
    123  CB       -60.0170  171.7060    4.6230 C.3   105  GLN105      0.0381
    124  CG       -59.5630  173.1150    4.2520 C.3   105  GLN105      0.0905
    125  CD       -58.2110  173.1450    3.5590 C.2   105  GLN105      0.2608
    126  OE1      -57.8640  172.2420    2.7970 O.2   105  GLN105     -0.2717
    127  NE2      -57.4450  174.1980    3.8110 N.am  105  GLN105     -0.0878
    128  N        -59.7630  170.8010    7.3970 N.am  106  ARG106     -0.1966
    129  CA       -59.1200  170.8160    8.7040 C.3   106  ARG106      0.1729
    130  C        -57.6600  171.1760    8.4780 C.2   106  ARG106      0.2616
    131  O        -56.8730  170.3540    7.9990 O.2   106  ARG106     -0.2715
    132  CB       -59.2030  169.4540    9.3820 C.3   106  ARG106      0.0348
    133  CG       -60.5180  169.1700   10.0620 C.3   106  ARG106      0.0492
    134  CD       -60.4150  167.8690   10.8200 C.3   106  ARG106      0.2205
    135  NE       -61.6750  167.4820   11.4400 N.pl3 106  ARG106     -0.0865
    136  CZ       -61.8780  166.3110   12.0360 C.cat 106  ARG106      0.5346
    137  NH1      -60.9010  165.4140   12.0920 N.pl3 106  ARG106      0.1354
    138  NH2      -63.0590  166.0340   12.5730 N.pl3 106  ARG106      0.1354
    139  N        -57.2970  172.4060    8.8170 N.am  107  LEU107     -0.1963
    140  CA       -55.9280  172.8530    8.6110 C.3   107  LEU107      0.1728
    141  C        -54.8890  172.0230    9.3530 C.2   107  LEU107      0.2616
    142  O        -54.9330  171.8950   10.5750 O.2   107  LEU107     -0.2715
    143  CB       -55.7930  174.3310    8.9890 C.3   107  LEU107      0.0311
    144  CG       -56.5540  175.2880    8.0720 C.3   107  LEU107      0.0022
    145  CD1      -56.1300  176.7210    8.3440 C.3   107  LEU107      0.0001
    146  CD2      -56.2650  174.9200    6.6340 C.3   107  LEU107      0.0001
    147  N        -53.9570  171.4610    8.5890 N.am  108  THR108     -0.1951
    148  CA       -52.8860  170.6310    9.1290 C.3   108  THR108      0.1897
    149  C        -51.6850  170.8060    8.2270 C.2   108  THR108      0.2313
    150  O        -51.5590  171.8160    7.5430 O.2   108  THR108     -0.2863
    151  CB       -53.2450  169.1380    9.0980 C.3   108  THR108      0.1794
    152  OG1      -54.6530  168.9810    9.3000 O.3   108  THR108     -0.2208
    153  CG2      -52.4830  168.3810   10.1870 C.3   108  THR108      0.0378
    154  N        -59.4130  178.9620   17.1390 N.3   125  CYS125     -0.1221
    155  CA       -60.7880  178.8990   17.6180 C.3   125  CYS125      0.1808
    156  C        -61.2600  177.4670   17.5980 C.2   125  CYS125      0.2602
    157  O        -62.4560  177.1820   17.5300 O.2   125  CYS125     -0.2717
    158  CB       -61.6880  179.7730   16.7550 C.3   125  CYS125      0.0970
    159  SG       -61.4510  181.5090   17.1160 S.3   125  CYS125     -0.0800
    160  N        -60.2880  176.5670   17.6420 N.am  126  THR126     -0.1939
    161  CA       -60.5570  175.1480   17.6680 C.3   126  THR126      0.2028
    162  C        -60.5030  174.7370   19.1280 C.2   126  THR126      0.2642
    163  O        -59.6740  175.2280   19.8920 O.2   126  THR126     -0.2714
    164  CB       -59.4700  174.3610   16.9370 C.3   126  THR126      0.1808
    165  OG1      -58.2130  174.5980   17.5780 O.3   126  THR126     -0.2208
    166  CG2      -59.3710  174.7950   15.4930 C.3   126  THR126      0.0379
    167  N        -61.4070  173.8690   19.5360 N.am  127  ASP127     -0.1957
    168  CA       -61.3590  173.3880   20.8970 C.3   127  ASP127      0.1840
    169  C        -60.8390  171.9840   20.6770 C.2   127  ASP127      0.2622
    170  O        -61.5950  171.0230   20.5990 O.2   127  ASP127     -0.2715
    171  CB       -62.7500  173.4020   21.5270 C.3   127  ASP127      0.1450
    172  CG       -63.1460  174.7860   22.0200 C.2   127  ASP127      0.3671
    173  OD1      -62.5960  175.2340   23.0510 O.co2 127  ASP127     -0.2456
    174  OD2      -63.9960  175.4280   21.3680 O.co2 127  ASP127     -0.2456
    175  N        -59.5260  171.8930   20.5310 N.am  128  ASN128     -0.1972
    176  CA       -58.8650  170.6290   20.2650 C.3   128  ASN128      0.1688
    177  C        -57.3740  170.8150   20.5360 C.2   128  ASN128      0.2292
    178  O        -56.6710  171.4530   19.7570 O.2   128  ASN128     -0.2864
    179  CB       -59.1100  170.2560   18.8020 C.3   128  ASN128      0.1181
    180  CG       -58.3380  169.0380   18.3690 C.2   128  ASN128      0.2629
    181  OD1      -57.1140  168.9890   18.4830 O.2   128  ASN128     -0.2716
    182  ND2      -59.0500  168.0440   17.8520 N.am  128  ASN128     -0.0877
    183  N        -54.8190  170.1410   17.3750 N.3   131  THR131     -0.1218
    184  CA       -54.8240  171.2150   16.3980 C.3   131  THR131      0.1862
    185  C        -54.1320  172.4270   17.0040 C.2   131  THR131      0.2287
    186  O        -53.2700  173.0530   16.3890 O.2   131  THR131     -0.2866
    187  CB       -56.2530  171.6260   16.0420 C.3   131  THR131      0.1770
    188  OG1      -57.0260  170.4630   15.7190 O.3   131  THR131     -0.2211
    189  CG2      -56.2380  172.5780   14.8650 C.3   131  THR131      0.0375
    190  N        -71.3540  173.4650   27.4060 N.3   189  VAL189     -0.1245
    191  CA       -70.7790  174.7840   27.6540 C.3   189  VAL189      0.1561
    192  C        -71.8530  175.8600   27.6210 C.2   189  VAL189      0.2260
    193  O        -72.8490  175.7230   26.9000 O.2   189  VAL189     -0.2867
    194  CB       -69.6840  175.1180   26.5960 C.3   189  VAL189      0.0252
    195  CG1      -70.3140  175.2680   25.2090 C.3   189  VAL189      0.0019
    196  CG2      -68.9220  176.3780   27.0130 C.3   189  VAL189      0.0019
    197  N        -68.5750  181.1200   26.3260 N.3   194  VAL194     -0.1245
    198  CA       -67.6770  180.9640   25.1970 C.3   194  VAL194      0.1561
    199  C        -67.7660  182.1960   24.3200 C.2   194  VAL194      0.2260
    200  O        -66.7970  182.5670   23.6640 O.2   194  VAL194     -0.2867
    201  CB       -67.9780  179.6880   24.3590 C.3   194  VAL194      0.0252
    202  CG1      -69.3240  179.7770   23.6640 C.3   194  VAL194      0.0019
    203  CG2      -66.8560  179.4790   23.3660 C.3   194  VAL194      0.0019
@<TRIPOS>BOND
     1   126   125    2
     2   125   127   am
     3   125   124    1
     4   124   123    1
     5   123   120    1
     6   119   120    1
     7   120   121    1
     8    57    55   ar
     9   146   144    1
    10   121   128   am
    11   121   122    2
    12    45    44    2
    13    55    56   ar
    14    55    54    1
    15   128   129    1
    16   150   149    2
    17   110   111    1
    18   112   113    2
    19   112   111    1
    20    53    52    2
    21   131   130    2
    22   144   145    1
    23   144   143    1
    24    38    41    1
    25    38    37    1
    26    38    39    1
    27    51    54    1
    28    51    52    1
    29    51    50    1
    30   149   148    1
    31    44    50   am
    32    44    43    1
    33   111   114    1
    34    42    39   am
    35    42    43    1
    36   130   129    1
    37   130   139   am
    38    52    58   am
    39   147   148    1
    40   147   141   am
    41   140   139    1
    42   140   143    1
    43   140   141    1
    44    61    60    2
    45   129   132    1
    46    39    40    2
    47   151   148    1
    48   151   152    1
    49   151   153    1
    50    43    46    1
    51   141   142    2
    52    60    59    1
    53   132   133    1
    54    19    18    1
    55    58    59    1
    56   114   115    1
    57    46    47    1
    58   133   134    1
    59    59    62    1
    60   115   116    1
    61   134   135    1
    62    48    47   ar
    63    18    20    1
    64    18    17    1
    65    47    49   ar
    66   135   136    2
    67    62    63    1
    68    64    63   ar
    69    17    14    1
    70    74    72   ar
    71    74    75   ar
    72   116   117    1
    73   136   137    1
    74   136   138    1
    75     7     5    1
    76     6     5    1
    77     6     8    1
    78    63    65   ar
    79     2     1    1
    80     2     5    1
    81     2     3    1
    82    72    71   ar
    83    75    73   ar
    84     9     3   am
    85     9    10    1
    86    66    67    1
    87   117   118    1
    88    14    13    1
    89    14    15    1
    90    13    11   am
    91     3     4    2
    92    67    70    1
    93    67    68    1
    94    71    73   ar
    95    71    70    1
    96    10    11    1
    97    11    12    2
    98    16    15    2
    99    15    21   am
   100    68    69    2
   101    89    87   am
   102   189   187    1
   103    21    22    1
   104   166   164    1
   105   108   107    2
   106   104   103    2
   107   188   187    1
   108    87    86    1
   109    87    88    2
   110   187   184    1
   111    86    83    1
   112   186   185    2
   113   184   185    1
   114   184   183    1
   115    22    23    1
   116   105   102    1
   117   105   106    1
   118   103   102    1
   119   158   159    1
   120   158   155    1
   121   107   109   am
   122   107   106    1
   123   164   165    1
   124   164   161    1
   125    24    23    2
   126   154   155    1
   127    23    25   am
   128   102   101    1
   129   157   156    2
   130    76    77    1
   131   156   155    1
   132   156   160   am
   133   160   161    1
   134    83    82    1
   135    83    84    1
   136   161   162    1
   137    82    78   am
   138   182   180   am
   139    84    85    2
   140    32    31    2
   141   180   181    2
   142   180   179    1
   143    31    30    1
   144   101    92   am
   145    25    26    1
   146   179   176    1
   147    81    80    1
   148    77    78    1
   149    77    80    1
   150    78    79    2
   151   162   167   am
   152   162   163    2
   153   167   168    1
   154    29    30    1
   155    29    27   am
   156    30    33    1
   157    26    27    1
   158   178   177    2
   159    92    93    2
   160    92    91    1
   161    27    28    2
   162    33    34    1
   163   176   175    1
   164   176   177    1
   165   175   169   am
   166   170   169    2
   167   169   168    1
   168    90    91    1
   169   168   171    1
   170    91    94    1
   171   100    98    1
   172    35    34    1
   173    99    98    1
   174   174   172   ar
   175    95    94    1
   176    95    96    1
   177    34    36    1
   178    98    97    2
   179   171   172    1
   180    97    96    1
   181   172   173   ar
   182   203   201    1
   183   200   199    2
   184   202   201    1
   185   199   198    1
   186   201   198    1
   187   198   197    1
   188   195   194    1
   189   194   196    1
   190   194   191    1
   191   193   192    2
   192   190   191    1
   193   192   191    1
