@<TRIPOS>MOLECULE
tmp/1zfpA00.pdb
 133 128 0 0 0
SMALL
GASTEIGER

@<TRIPOS>ATOM
      1  N         34.4930   38.8310   85.0540 N.3    12  ARG12      -0.1245
      2  CA        33.9400   38.9420   83.7200 C.3    12  ARG12       0.1563
      3  C         32.9510   40.1130   83.5930 C.2    12  ARG12       0.2260
      4  O         32.9640   40.8320   82.6100 O.2    12  ARG12      -0.2867
      5  CB        33.2850   37.6020   83.3130 C.3    12  ARG12       0.0307
      6  CG        32.3440   37.6930   82.1310 C.3    12  ARG12       0.0489
      7  CD        31.5100   36.4110   81.9370 C.3    12  ARG12       0.2205
      8  NE        32.2330   35.3960   81.1920 N.pl3  12  ARG12      -0.0865
      9  CZ        31.8730   34.9250   80.0010 C.cat  12  ARG12       0.5346
     10  NH1       30.7730   35.3680   79.3920 N.pl3  12  ARG12       0.1354
     11  NH2       32.6230   34.0010   79.4210 N.pl3  12  ARG12       0.1354
     12  N         42.2930   39.0420   80.5640 N.3    31  ARG31      -0.1245
     13  CA        42.0960   38.9310   82.0120 C.3    31  ARG31       0.1563
     14  C         42.3750   37.4920   82.4440 C.2    31  ARG31       0.2260
     15  O         42.3590   36.5590   81.6210 O.2    31  ARG31      -0.2867
     16  CB        40.6650   39.3370   82.4170 C.3    31  ARG31       0.0307
     17  CG        39.5860   38.5530   81.6730 C.3    31  ARG31       0.0489
     18  CD        38.1800   38.9840   82.0410 C.3    31  ARG31       0.2205
     19  NE        37.2240   38.3370   81.1530 N.pl3  31  ARG31      -0.0865
     20  CZ        36.7100   37.1280   81.3530 C.cat  31  ARG31       0.5346
     21  NH1       37.0420   36.4220   82.4400 N.pl3  31  ARG31       0.1354
     22  NH2       35.8590   36.6240   80.4660 N.pl3  31  ARG31       0.1354
     23  N         41.1310   34.3920   84.2190 N.3    33  SER33      -0.1202
     24  CA        39.8360   33.8080   84.5140 C.3    33  SER33       0.2020
     25  C         39.5950   33.4050   85.9650 C.2    33  SER33       0.2619
     26  O         40.5050   32.9660   86.6610 O.2    33  SER33      -0.2717
     27  CB        39.6270   32.5800   83.6140 C.3    33  SER33       0.2103
     28  OG        38.3400   32.0040   83.8010 O.3    33  SER33      -0.2182
     29  N         38.3460   33.5170   86.4010 N.am   34  GLU34      -0.1965
     30  CA        37.9720   33.0840   87.7340 C.3    34  GLU34       0.1733
     31  C         37.4590   31.6410   87.6320 C.2    34  GLU34       0.2617
     32  O         37.1780   31.0040   88.6410 O.2    34  GLU34      -0.2715
     33  CB        36.8790   33.9900   88.3080 C.3    34  GLU34       0.0429
     34  CG        37.3640   35.3770   88.5730 C.3    34  GLU34       0.1163
     35  CD        36.3850   36.1960   89.3450 C.2    34  GLU34       0.3649
     36  OE1       35.2400   36.3290   88.8800 O.co2  34  GLU34      -0.2457
     37  OE2       36.7620   36.7190   90.4160 O.co2  34  GLU34      -0.2457
     38  N         37.3290   31.1430   86.3980 N.am   35  SER35      -0.1950
     39  CA        36.8260   29.7830   86.1420 C.3    35  SER35       0.1924
     40  C         37.7990   28.6530   86.3740 C.2    35  SER35       0.2314
     41  O         37.3870   27.4970   86.4840 O.2    35  SER35      -0.2863
     42  CB        36.3030   29.6690   84.7160 C.3    35  SER35       0.2116
     43  OG        35.1210   30.4140   84.5590 O.3    35  SER35      -0.2180
     44  N         41.5030   34.7900   79.5580 N.3    41  SER41      -0.1217
     45  CA        40.3550   35.0290   78.7030 C.3    41  SER41       0.1889
     46  C         40.5680   36.3660   77.9900 C.2    41  SER41       0.2288
     47  O         41.1770   37.2980   78.5400 O.2    41  SER41      -0.2866
     48  CB        39.0590   35.0800   79.5120 C.3    41  SER41       0.2089
     49  OG        38.7430   33.8090   80.0340 O.3    41  SER41      -0.2183
     50  N         32.2650   40.1880   73.5470 N.3    51  GLN51      -0.1231
     51  CA        32.4930   38.7860   73.2570 C.3    51  GLN51       0.1698
     52  C         33.6820   38.3070   74.0780 C.2    51  GLN51       0.2592
     53  O         34.6340   39.0550   74.2940 O.2    51  GLN51      -0.2718
     54  CB        32.7560   38.5860   71.7640 C.3    51  GLN51       0.0381
     55  CG        31.6260   39.0780   70.8770 C.3    51  GLN51       0.0905
     56  CD        31.7380   38.5570   69.4560 C.2    51  GLN51       0.2608
     57  OE1       32.7070   37.8890   69.1030 O.2    51  GLN51      -0.2717
     58  NE2       30.7380   38.8550   68.6400 N.am   51  GLN51      -0.0878
     59  N         33.6040   37.0650   74.5550 N.am   52  HIS52      -0.1962
     60  CA        34.6750   36.4850   75.3550 C.3    52  HIS52       0.1787
     61  C         35.2490   35.2650   74.6640 C.2    52  HIS52       0.2620
     62  O         34.5110   34.4240   74.1690 O.2    52  HIS52      -0.2715
     63  CB        34.1450   36.0840   76.7300 C.3    52  HIS52       0.0785
     64  CG        33.5340   37.2160   77.4990 C.ar   52  HIS52       0.0821
     65  ND1       34.2780   38.0580   78.2970 N.ar   52  HIS52      -0.2267
     66  CD2       32.2520   37.6440   77.5900 C.ar   52  HIS52       0.1154
     67  CE1       33.4800   38.9530   78.8510 C.ar   52  HIS52       0.1986
     68  NE2       32.2470   38.7280   78.4340 N.ar   52  HIS52      -0.2212
     69  N         36.5700   35.1630   74.6560 N.am   53  PHE53      -0.1960
     70  CA        37.2510   34.0300   74.0450 C.3    53  PHE53       0.1771
     71  C         38.1270   33.4050   75.1050 C.2    53  PHE53       0.2619
     72  O         38.8260   34.1120   75.8340 O.2    53  PHE53      -0.2715
     73  CB        38.1470   34.4890   72.8800 C.3    53  PHE53       0.0574
     74  CG        37.3860   35.0330   71.7100 C.ar   53  PHE53      -0.0200
     75  CD1       36.8430   36.3060   71.7530 C.ar   53  PHE53      -0.0042
     76  CD2       37.2130   34.2720   70.5690 C.ar   53  PHE53      -0.0042
     77  CE1       36.1360   36.8110   70.6690 C.ar   53  PHE53      -0.0003
     78  CE2       36.5070   34.7670   69.4910 C.ar   53  PHE53      -0.0003
     79  CZ        35.9610   36.0340   69.5440 C.ar   53  PHE53      -0.0000
     80  N         38.0810   32.0860   75.1950 N.am   54  LYS54      -0.1977
     81  CA        38.8930   31.3510   76.1490 C.3    54  LYS54       0.1596
     82  C         40.2590   31.1100   75.5070 C.2    54  LYS54       0.2287
     83  O         40.3450   30.6360   74.3800 O.2    54  LYS54      -0.2864
     84  CB        38.1990   30.0040   76.4800 C.3    54  LYS54       0.0298
     85  CG        39.0140   29.0340   77.3270 C.3    54  LYS54       0.0038
     86  CD        39.6380   29.7200   78.5350 C.3    54  LYS54       0.0206
     87  CE        38.5970   30.4090   79.3990 C.3    54  LYS54       0.1093
     88  NZ        39.2720   31.3030   80.3640 N.3    54  LYS54      -0.1314
     89  N         43.1480   28.9250   75.0350 N.3    56  LEU56      -0.1245
     90  CA        43.4810   27.5270   75.2370 C.3    56  LEU56       0.1561
     91  C         44.9910   27.3360   75.2190 C.2    56  LEU56       0.2260
     92  O         45.7160   28.1520   74.6680 O.2    56  LEU56      -0.2867
     93  CB        42.8650   26.6630   74.1170 C.3    56  LEU56       0.0270
     94  CG        41.3460   26.4820   73.9770 C.3    56  LEU56       0.0019
     95  CD1       40.6280   26.5880   75.2980 C.3    56  LEU56       0.0001
     96  CD2       40.7320   27.3720   72.9240 C.3    56  LEU56       0.0001
     97  N         43.3490   30.2170   70.1260 N.3    65  LEU65      -0.1231
     98  CA        41.9320   30.5340   70.2130 C.3    65  LEU65       0.1693
     99  C         41.1390   29.5190   69.3840 C.2    65  LEU65       0.2592
    100  O         40.1090   29.0050   69.8100 O.2    65  LEU65      -0.2718
    101  CB        41.6710   31.9370   69.6300 C.3    65  LEU65       0.0284
    102  CG        42.1940   33.1880   70.3490 C.3    65  LEU65       0.0019
    103  CD1       41.6040   34.4460   69.7640 C.3    65  LEU65       0.0001
    104  CD2       41.9610   33.1160   71.8290 C.3    65  LEU65       0.0001
    105  N         41.6300   29.2590   68.1810 N.am   66  TRP66      -0.1976
    106  CA        40.9700   28.3490   67.2680 C.3    66  TRP66       0.1640
    107  C         41.9160   27.2640   66.8060 C.2    66  TRP66       0.2290
    108  O         41.8960   26.1600   67.3270 O.2    66  TRP66      -0.2864
    109  CB        40.4440   29.1140   66.0530 C.3    66  TRP66       0.0576
    110  CG        39.4740   30.2000   66.3950 C.ar   66  TRP66       0.0006
    111  CD1       39.7240   31.5540   66.4290 C.ar   66  TRP66       0.0946
    112  CD2       38.0900   30.0400   66.7150 C.ar   66  TRP66       0.0152
    113  NE1       38.5820   32.2330   66.7720 N.ar   66  TRP66      -0.2442
    114  CE2       37.5630   31.3290   66.9500 C.ar   66  TRP66       0.0810
    115  CE3       37.2430   28.9330   66.8360 C.ar   66  TRP66       0.0012
    116  CZ2       36.2230   31.5360   67.2840 C.ar   66  TRP66       0.0191
    117  CZ3       35.9100   29.1440   67.1670 C.ar   66  TRP66       0.0001
    118  CH2       35.4150   30.4300   67.4050 C.ar   66  TRP66       0.0015
    119  N         37.8280   36.3530   64.4990 N.3    86  SER86      -0.1217
    120  CA        36.8020   35.4440   64.0550 C.3    86  SER86       0.1889
    121  C         36.6850   35.4440   62.5370 C.2    86  SER86       0.2288
    122  O         36.8660   36.4660   61.8890 O.2    86  SER86      -0.2866
    123  CB        35.4800   35.8180   64.7050 C.3    86  SER86       0.2089
    124  OG        34.3820   35.2280   64.0310 O.3    86  SER86      -0.2183
    125  N         33.0080   37.1690   61.7400 N.3    89  GLN89      -0.1245
    126  CA        32.8410   38.5960   61.9570 C.3    89  GLN89       0.1566
    127  C         34.2290   39.2130   61.8680 C.2    89  GLN89       0.2260
    128  O         35.2160   38.5560   62.1990 O.2    89  GLN89      -0.2867
    129  CB        32.2040   38.8570   63.3190 C.3    89  GLN89       0.0367
    130  CG        30.7670   38.3430   63.4440 C.3    89  GLN89       0.0905
    131  CD        30.2130   38.4670   64.8640 C.2    89  GLN89       0.2608
    132  OE1       30.8440   38.0310   65.8340 O.2    89  GLN89      -0.2717
    133  NE2       29.0260   39.0550   64.9870 N.am   89  GLN89      -0.0878
@<TRIPOS>BOND
     1   125   126    1
     2   127   126    1
     3   127   128    2
     4   122   121    2
     5   126   129    1
     6   121   120    1
     7   129   130    1
     8   130   131    1
     9   124   123    1
    10   120   119    1
    11   120   123    1
    12   131   133   am
    13   131   132    2
    14   109   110    1
    15   109   106    1
    16   110   111   ar
    17   110   112   ar
    18   111   113   ar
    19   112   115   ar
    20   112   114   ar
    21   113   114   ar
    22   107   106    1
    23   107   108    2
    24   115   117   ar
    25   114   116   ar
    26   117   118   ar
    27   106   105    1
    28   116   118   ar
    29   105    99   am
    30    58    56   am
    31    57    56    2
    32    99   100    2
    33    99    98    1
    34    56    55    1
    35    78    79   ar
    36    78    76   ar
    37    79    77   ar
    38   101    98    1
    39   101   102    1
    40   103   102    1
    41    97    98    1
    42   102   104    1
    43    76    74   ar
    44    77    75   ar
    45    55    54    1
    46    74    75   ar
    47    74    73    1
    48    54    51    1
    49    73    70    1
    50    96    94    1
    51    51    50    1
    52    51    52    1
    53    94    93    1
    54    94    95    1
    55    70    69    1
    56    70    71    1
    57    52    53    2
    58    52    59   am
    59    93    90    1
    60    62    61    2
    61    83    82    2
    62    59    60    1
    63    69    61   am
    64    61    60    1
    65    92    91    2
    66    89    90    1
    67    71    80   am
    68    71    72    2
    69    80    81    1
    70    91    90    1
    71    60    63    1
    72    82    81    1
    73    81    84    1
    74    84    85    1
    75    63    64    1
    76    85    86    1
    77    64    66   ar
    78    64    65   ar
    79    66    68   ar
    80    46    47    2
    81    46    45    1
    82    65    67   ar
    83    68    67   ar
    84    86    87    1
    85    45    48    1
    86    45    44    1
    87    10     9    1
    88    87    88    1
    89    11     9    1
    90    48    49    1
    91     9     8    2
    92    22    20    1
    93    12    13    1
    94    19    20    2
    95    19    18    1
    96     8     7    1
    97    20    21    1
    98    15    14    2
    99    17    18    1
   100    17    16    1
   101     7     6    1
   102    13    16    1
   103    13    14    1
   104     6     5    1
   105     4     3    2
   106     5     2    1
   107     3     2    1
   108    27    28    1
   109    27    24    1
   110     2     1    1
   111    23    24    1
   112    24    25    1
   113    43    42    1
   114    42    39    1
   115    25    29   am
   116    25    26    2
   117    39    40    1
   118    39    38    1
   119    40    41    2
   120    38    31   am
   121    29    30    1
   122    31    30    1
   123    31    32    2
   124    30    33    1
   125    33    34    1
   126    34    35    1
   127    36    35   ar
   128    35    37   ar
