@<TRIPOS>MOLECULE
tmp/1zfqA00.pdb
 114 113 0 0 0
SMALL
GASTEIGER

@<TRIPOS>ATOM
      1  N          8.4840    7.9910   11.1730 N.3    89  GLN89      -0.1245
      2  CA         8.7560    6.8470   10.3440 C.3    89  GLN89       0.1566
      3  C          8.4700    5.5590   11.1040 C.2    89  GLN89       0.2260
      4  O          8.4240    5.6060   12.3310 O.2    89  GLN89      -0.2867
      5  CB        10.2050    6.7940    9.8500 C.3    89  GLN89       0.0367
      6  CG        11.2810    6.9230   10.9180 C.3    89  GLN89       0.0905
      7  CD        12.0820    5.6920   11.1750 C.2    89  GLN89       0.2608
      8  OE1       11.5540    4.5990   11.1720 O.2    89  GLN89      -0.2717
      9  NE2       13.3810    5.8750   11.4400 N.am   89  GLN89      -0.0878
     10  N          9.9260    1.2530   10.9390 N.3    91  HIS91      -0.1241
     11  CA        10.8160    0.2980   10.3290 C.3    91  HIS91       0.1621
     12  C         10.7450   -0.9940   11.1450 C.2    91  HIS91       0.2264
     13  O         10.0710   -1.0400   12.1760 O.2    91  HIS91      -0.2867
     14  CB        12.2590    0.7830   10.2200 C.3    91  HIS91       0.0745
     15  CG        12.8100    1.0310   11.5890 C.ar   91  HIS91       0.0817
     16  ND1       12.6120    2.2420   12.2180 N.ar   91  HIS91      -0.2268
     17  CD2       13.4830    0.2640   12.4670 C.ar   91  HIS91       0.1154
     18  CE1       13.1600    2.2210   13.4340 C.ar   91  HIS91       0.1986
     19  NE2       13.6870    1.0220   13.5800 N.ar   91  HIS91      -0.2212
     20  N         13.0560   -4.7190   12.4200 N.3    93  HIS93      -0.1241
     21  CA        14.2420   -5.5060   12.5930 C.3    93  HIS93       0.1621
     22  C         13.8460   -6.9710   12.4770 C.2    93  HIS93       0.2264
     23  O         12.8070   -7.3260   13.0430 O.2    93  HIS93      -0.2867
     24  CB        14.9080   -5.2810   13.9480 C.3    93  HIS93       0.0745
     25  CG        15.1640   -3.8400   14.2220 C.ar   93  HIS93       0.0817
     26  ND1       16.4060   -3.2870   13.9480 N.ar   93  HIS93      -0.2268
     27  CD2       14.4270   -2.7960   14.6540 C.ar   93  HIS93       0.1154
     28  CE1       16.3730   -1.9920   14.2590 C.ar   93  HIS93       0.1986
     29  NE2       15.1590   -1.6620   14.6930 N.ar   93  HIS93      -0.2212
     30  N          9.1240   -0.8920   14.8260 N.3   116  HIS116     -0.1241
     31  CA         9.3710    0.3400   15.5580 C.3   116  HIS116      0.1621
     32  C          8.6270    1.4930   14.8900 C.2   116  HIS116      0.2264
     33  O          8.9700    1.8320   13.7510 O.2   116  HIS116     -0.2867
     34  CB        10.8700    0.6360   15.6270 C.3   116  HIS116      0.0745
     35  CG        11.6130   -0.3100   16.5250 C.ar  116  HIS116      0.0817
     36  ND1       12.9490   -0.5680   16.5360 N.ar  116  HIS116     -0.2268
     37  CD2       11.0830   -1.1270   17.4770 C.ar  116  HIS116      0.1154
     38  CE1       13.2500   -1.4680   17.4300 C.ar  116  HIS116      0.1986
     39  NE2       12.1330   -1.8450   18.0700 N.ar  116  HIS116     -0.2212
     40  N          8.3870    5.3330   15.1700 N.3   118  VAL118     -0.1245
     41  CA         9.2420    6.3390   15.7860 C.3   118  VAL118      0.1561
     42  C          8.5810    7.7020   15.8390 C.2   118  VAL118      0.2260
     43  O          8.1090    8.1430   14.7920 O.2   118  VAL118     -0.2867
     44  CB        10.5670    6.4500   14.9950 C.3   118  VAL118      0.0252
     45  CG1       11.5000    7.4420   15.6470 C.3   118  VAL118      0.0019
     46  CG2       11.2060    5.0740   14.8620 C.3   118  VAL118      0.0019
     47  N         12.9780   16.7200   14.7910 N.3   127  PHE127     -0.1241
     48  CA        13.6350   15.4940   15.2430 C.3   127  PHE127      0.1605
     49  C         15.0480   15.7540   15.6980 C.2   127  PHE127      0.2264
     50  O         15.5210   15.1700   16.6790 O.2   127  PHE127     -0.2867
     51  CB        13.5330   14.4960   14.0640 C.3   127  PHE127      0.0534
     52  CG        14.1630   13.1580   14.4000 C.ar  127  PHE127     -0.0203
     53  CD1       13.3690   12.1520   14.9150 C.ar  127  PHE127     -0.0042
     54  CD2       15.5020   12.8730   14.1970 C.ar  127  PHE127     -0.0042
     55  CE1       13.9310   10.9260   15.2050 C.ar  127  PHE127     -0.0003
     56  CE2       16.0690   11.6580   14.5200 C.ar  127  PHE127     -0.0003
     57  CZ        15.2720   10.6670   15.0170 C.ar  127  PHE127     -0.0000
     58  N          9.2700    5.5350   21.0570 N.3   139  VAL139     -0.1245
     59  CA         9.2310    4.4950   20.0430 C.3   139  VAL139      0.1561
     60  C          8.2440    3.4370   20.5390 C.2   139  VAL139      0.2260
     61  O          8.3570    2.9520   21.6530 O.2   139  VAL139     -0.2867
     62  CB        10.5900    3.8840   19.6990 C.3   139  VAL139      0.0252
     63  CG1       10.3810    2.8360   18.5940 C.3   139  VAL139      0.0019
     64  CG2       11.5430    4.9440   19.2180 C.3   139  VAL139      0.0019
     65  N         18.1070    4.9370   21.1550 N.3   194  LEU194     -0.1231
     66  CA        18.0420    4.3950   19.7860 C.3   194  LEU194      0.1693
     67  C         18.8210    3.0810   19.8270 C.2   194  LEU194      0.2593
     68  O         19.8440    2.9550   20.5330 O.2   194  LEU194     -0.2718
     69  CB        18.6330    5.3450   18.7820 C.3   194  LEU194      0.0284
     70  CG        18.0430    6.7570   18.7600 C.3   194  LEU194      0.0019
     71  CD1       18.9000    7.6580   17.8810 C.3   194  LEU194      0.0001
     72  CD2       16.6040    6.6900   18.2850 C.3   194  LEU194      0.0001
     73  N         18.3740    2.0980   19.0500 N.am  195  THR195     -0.1939
     74  CA        19.0410    0.8030   19.0380 C.3   195  THR195      0.2028
     75  C         20.0400    0.6750   17.8900 C.2   195  THR195      0.2643
     76  O         20.6920   -0.3650   17.8030 O.2   195  THR195     -0.2714
     77  CB        18.0460   -0.3760   18.9330 C.3   195  THR195      0.1808
     78  OG1       17.4590   -0.3180   17.6350 O.3   195  THR195     -0.2208
     79  CG2       16.9690   -0.3050   19.9780 C.3   195  THR195      0.0379
     80  N         20.2300    1.7190   17.0910 N.am  196  THR196     -0.1937
     81  CA        21.3150    1.7810   16.1020 C.3   196  THR196      0.2013
     82  C         22.1170    3.0530   16.3700 C.2   196  THR196      0.2484
     83  O         21.5930    3.9890   16.9810 O.2   196  THR196     -0.2729
     84  CB        20.8920    1.7810   14.6300 C.3   196  THR196      0.1807
     85  OG1       20.2780    3.0350   14.2580 O.3   196  THR196     -0.2208
     86  CG2       19.8210    0.7420   14.3470 C.3   196  THR196      0.0379
     87  N         23.3750    3.0830   15.9180 N.am  197  PRO197     -0.2715
     88  CA        24.1210    4.3470   15.9960 C.3   197  PRO197      0.1521
     89  C         23.3360    5.5010   15.4400 C.2   197  PRO197      0.2440
     90  O         22.6680    5.3050   14.4120 O.2   197  PRO197     -0.2731
     91  CB        25.3680    3.9880   15.1640 C.3   197  PRO197      0.0310
     92  CG        25.5450    2.5280   15.4260 C.3   197  PRO197      0.0237
     93  CD        24.1540    1.9800   15.3520 C.3   197  PRO197      0.0939
     94  N         23.3350    6.6790   16.0580 N.am  198  PRO198     -0.2727
     95  CA        24.2140    7.0700   17.1580 C.3   198  PRO198      0.1402
     96  C         23.8340    6.6160   18.5600 C.2   198  PRO198      0.2269
     97  O         24.5170    7.0420   19.5120 O.2   198  PRO198     -0.2865
     98  CB        24.1500    8.6010   17.0750 C.3   198  PRO198      0.0296
     99  CG        22.7910    8.9240   16.5220 C.3   198  PRO198      0.0237
    100  CD        22.4530    7.7860   15.6310 C.3   198  PRO198      0.0939
    101  N         10.5700    4.0960   25.5690 N.3   205  TRP205     -0.1241
    102  CA        10.1360    2.8930   24.8910 C.3   205  TRP205      0.1605
    103  C          8.7700    2.4640   25.4210 C.2   205  TRP205      0.2264
    104  O          8.5690    2.4410   26.6360 O.2   205  TRP205     -0.2867
    105  CB        11.1280    1.7180   25.1100 C.3   205  TRP205      0.0550
    106  CG        12.2700    1.8990   24.1330 C.ar  205  TRP205      0.0003
    107  CD1       13.4880    2.4670   24.3160 C.ar  205  TRP205      0.0946
    108  CD2       12.2180    1.4710   22.7640 C.ar  205  TRP205      0.0152
    109  NE1       14.2260    2.4290   23.1460 N.ar  205  TRP205     -0.2442
    110  CE2       13.4600    1.8240   22.1930 C.ar  205  TRP205      0.0810
    111  CE3       11.2460    0.8280   21.9780 C.ar  205  TRP205      0.0012
    112  CZ2       13.7210    1.5420   20.8620 C.ar  205  TRP205      0.0191
    113  CZ3       11.5370    0.5630   20.6700 C.ar  205  TRP205      0.0001
    114  CH2       12.7610    0.9160   20.1440 C.ar  205  TRP205      0.0015
@<TRIPOS>BOND
     1     5     2    1
     2     5     6    1
     3    14    11    1
     4    14    15    1
     5    11    10    1
     6    11    12    1
     7     2     3    1
     8     2     1    1
     9     6     7    1
    10     3     4    2
    11    12    13    2
    12     8     7    2
    13     7     9   am
    14    15    16   ar
    15    15    17   ar
    16    16    18   ar
    17    20    21    1
    18    17    19   ar
    19    22    21    1
    20    22    23    2
    21    21    24    1
    22    18    19   ar
    23    33    32    2
    24    24    25    1
    25    26    25   ar
    26    26    28   ar
    27    51    52    1
    28    51    48    1
    29    54    52   ar
    30    54    56   ar
    31    25    27   ar
    32    85    84    1
    33    28    29   ar
    34    86    84    1
    35    52    53   ar
    36    90    89    2
    37    56    57   ar
    38    84    81    1
    39    27    29   ar
    40    47    48    1
    41    43    42    2
    42    30    31    1
    43    46    44    1
    44    32    31    1
    45    53    55   ar
    46    44    45    1
    47    44    41    1
    48    57    55   ar
    49    91    92    1
    50    91    88    1
    51    40    41    1
    52    48    49    1
    53    93    92    1
    54    93    87    1
    55    89    88    1
    56    89    94   am
    57    31    34    1
    58    34    35    1
    59   100    94    1
    60   100    99    1
    61    49    50    2
    62    41    42    1
    63    87    88    1
    64    87    82   am
    65    94    95    1
    66    81    82    1
    67    81    80    1
    68    82    83    2
    69    99    98    1
    70    35    36   ar
    71    35    37   ar
    72    36    38   ar
    73    98    95    1
    74    80    75   am
    75    95    96    1
    76    38    39   ar
    77    37    39   ar
    78    78    77    1
    79    76    75    2
    80    71    70    1
    81    75    74    1
    82    72    70    1
    83    96    97    2
    84    63    62    1
    85    70    69    1
    86    69    66    1
    87    77    74    1
    88    77    79    1
    89    74    73    1
    90    73    67   am
    91    64    62    1
    92    62    59    1
    93    66    67    1
    94    66    65    1
    95    67    68    2
    96    59    60    1
    97    59    58    1
    98   114   113   ar
    99   114   112   ar
   100    60    61    2
   101   113   111   ar
   102   112   110   ar
   103   111   108   ar
   104   110   108   ar
   105   110   109   ar
   106   108   106   ar
   107   109   107   ar
   108   106   107   ar
   109   106   105    1
   110   102   105    1
   111   102   103    1
   112   102   101    1
   113   103   104    2
