@<TRIPOS>MOLECULE
tmp/1zg3A00.pdb
 140 136 0 0 0
SMALL
GASTEIGER

@<TRIPOS>ATOM
      1  N        104.2980   83.4360   35.1570 N.3   116  ILE116     -0.1245
      2  CA       104.5790   82.0160   35.0920 C.3   116  ILE116      0.1561
      3  C        104.6000   81.4390   36.5000 C.2   116  ILE116      0.2260
      4  O        104.0600   80.3570   36.7470 O.2   116  ILE116     -0.2867
      5  CB       105.9150   81.7500   34.3830 C.3   116  ILE116      0.0252
      6  CG1      105.8240   82.2420   32.9370 C.3   116  ILE116      0.0019
      7  CG2      106.2380   80.2660   34.4160 C.3   116  ILE116      0.0019
      8  CD1      107.0700   82.0060   32.1260 C.3   116  ILE116      0.0001
      9  N        100.9410   81.0820   37.6880 N.3   119  GLY119     -0.1210
     10  CA       100.2240   79.9510   37.1330 C.3   119  GLY119      0.1956
     11  C        100.7750   78.5930   37.5380 C.2   119  GLY119      0.2611
     12  O        100.0190   77.6850   37.8800 O.2   119  GLY119     -0.2717
     13  N        102.0930   78.4410   37.4870 N.am  120  ALA120     -0.1979
     14  CA       102.7220   77.1760   37.8580 C.3   120  ALA120      0.1597
     15  C        102.3980   76.8160   39.2920 C.2   120  ALA120      0.2287
     16  O        102.4520   75.6540   39.6560 O.2   120  ALA120     -0.2864
     17  CB       104.2420   77.2590   37.6840 C.3   120  ALA120      0.0319
     18  N         94.8760   75.4490   40.5450 N.3   124  SER124     -0.1202
     19  CA        94.5550   74.5730   39.4160 C.3   124  SER124      0.2020
     20  C         95.7540   73.7320   38.9820 C.2   124  SER124      0.2619
     21  O         95.5860   72.7120   38.3080 O.2   124  SER124     -0.2717
     22  CB        94.0440   75.3910   38.2250 C.3   124  SER124      0.2103
     23  OG        95.0440   76.2780   37.7530 O.3   124  SER124     -0.2182
     24  N         96.9570   74.1600   39.3670 N.am  125  SER125     -0.1951
     25  CA        98.1900   73.4320   39.0420 C.3   125  SER125      0.1924
     26  C         98.5900   72.4660   40.1600 C.2   125  SER125      0.2314
     27  O         99.1820   71.4170   39.9030 O.2   125  SER125     -0.2863
     28  CB        99.3670   74.3990   38.8410 C.3   125  SER125      0.2116
     29  OG        99.2480   75.1630   37.6590 O.3   125  SER125     -0.2180
     30  N         92.8140   69.2570   31.4730 N.3   153  PHE153     -0.1227
     31  CA        93.2080   70.5840   31.9060 C.3   153  PHE153      0.1736
     32  C         92.6310   71.6440   30.9760 C.2   153  PHE153      0.2595
     33  O         92.1180   72.6640   31.4220 O.2   153  PHE153     -0.2718
     34  CB        94.7290   70.7020   31.9310 C.3   153  PHE153      0.0547
     35  CG        95.2280   72.0280   32.4440 C.ar  153  PHE153     -0.0202
     36  CD1       95.0670   72.3760   33.7840 C.ar  153  PHE153     -0.0042
     37  CD2       95.8650   72.9230   31.5900 C.ar  153  PHE153     -0.0042
     38  CE1       95.5370   73.5950   34.2710 C.ar  153  PHE153     -0.0003
     39  CE2       96.3390   74.1430   32.0640 C.ar  153  PHE153     -0.0003
     40  CZ        96.1750   74.4800   33.4090 C.ar  153  PHE153     -0.0000
     41  N         92.7120   71.3940   29.6780 N.am  154  TRP154     -0.1976
     42  CA        92.2220   72.3530   28.7010 C.3   154  TRP154      0.1640
     43  C         90.7290   72.6330   28.8470 C.2   154  TRP154      0.2290
     44  O         90.3230   73.7900   28.8550 O.2   154  TRP154     -0.2864
     45  CB        92.5510   71.8720   27.2810 C.3   154  TRP154      0.0576
     46  CG        93.9280   71.2490   27.1670 C.ar  154  TRP154      0.0006
     47  CD1       94.2350   69.9140   27.2370 C.ar  154  TRP154      0.0946
     48  CD2       95.1800   71.9370   27.0080 C.ar  154  TRP154      0.0152
     49  NE1       95.5950   69.7320   27.1310 N.ar  154  TRP154     -0.2442
     50  CE2       96.2000   70.9540   26.9890 C.ar  154  TRP154      0.0810
     51  CE3       95.5410   73.2870   26.8810 C.ar  154  TRP154      0.0012
     52  CZ2       97.5570   71.2780   26.8480 C.ar  154  TRP154      0.0191
     53  CZ3       96.8960   73.6110   26.7410 C.ar  154  TRP154      0.0001
     54  CH2       97.8850   72.6070   26.7260 C.ar  154  TRP154      0.0015
     55  N         90.0790   74.9860   31.8540 N.3   157  LEU157     -0.1245
     56  CA        90.3540   76.3900   31.5760 C.3   157  LEU157      0.1561
     57  C         89.2880   77.0420   30.6950 C.2   157  LEU157      0.2260
     58  O         89.0650   78.2460   30.7880 O.2   157  LEU157     -0.2867
     59  CB        91.7190   76.5580   30.8920 C.3   157  LEU157      0.0270
     60  CG        93.0260   76.3050   31.6480 C.3   157  LEU157      0.0019
     61  CD1       94.1910   76.5630   30.7070 C.3   157  LEU157      0.0001
     62  CD2       93.1240   77.2070   32.8700 C.3   157  LEU157      0.0001
     63  N         94.8990   83.8530   32.9460 N.3   168  MET168     -0.1230
     64  CA        96.1190   83.7290   33.7430 C.3   168  MET168      0.1702
     65  C         97.0730   82.7930   33.0050 C.2   168  MET168      0.2592
     66  O         98.2750   83.0470   32.9180 O.2   168  MET168     -0.2718
     67  CB        95.8150   83.1360   35.1260 C.3   168  MET168      0.0401
     68  CG        97.0610   82.7190   35.8970 C.3   168  MET168      0.0596
     69  SD        96.6980   81.7590   37.3750 S.3   168  MET168     -0.1393
     70  CE        96.3510   80.1630   36.6720 C.3   168  MET168      0.0692
     71  N         96.5200   81.7080   32.4730 N.am  169  PHE169     -0.1976
     72  CA        97.3100   80.7330   31.7390 C.3   169  PHE169      0.1639
     73  C         97.8840   81.3310   30.4590 C.2   169  PHE169      0.2290
     74  O         99.0650   81.1440   30.1610 O.2   169  PHE169     -0.2864
     75  CB        96.4650   79.4960   31.4130 C.3   169  PHE169      0.0560
     76  CG        97.2090   78.4390   30.6500 C.ar  169  PHE169     -0.0200
     77  CD1       97.0820   78.3400   29.2710 C.ar  169  PHE169     -0.0042
     78  CD2       98.0560   77.5590   31.3100 C.ar  169  PHE169     -0.0042
     79  CE1       97.7920   77.3710   28.5510 C.ar  169  PHE169     -0.0003
     80  CE2       98.7750   76.5870   30.6120 C.ar  169  PHE169     -0.0003
     81  CZ        98.6460   76.4880   29.2280 C.ar  169  PHE169     -0.0000
     82  N        100.8640   83.6700   31.0590 N.3   172  ALA172     -0.1231
     83  CA       102.1120   82.9570   31.2870 C.3   172  ALA172      0.1694
     84  C        102.7070   82.4570   29.9810 C.2   172  ALA172      0.2591
     85  O        103.9130   82.5730   29.7580 O.2   172  ALA172     -0.2718
     86  CB       101.8840   81.7850   32.2350 C.3   172  ALA172      0.0304
     87  N        101.8620   81.9010   29.1170 N.am  173  MET173     -0.1979
     88  CA       102.3420   81.3850   27.8410 C.3   173  MET173      0.1605
     89  C        102.8880   82.5090   26.9770 C.2   173  MET173      0.2287
     90  O        103.9510   82.3730   26.3770 O.2   173  MET173     -0.2864
     91  CB       101.2260   80.6410   27.0970 C.3   173  MET173      0.0413
     92  CG       100.7670   79.3610   27.7920 C.3   173  MET173      0.0598
     93  SD       102.1140   78.1770   28.1260 S.3   173  MET173     -0.1393
     94  CE       102.4780   78.5300   29.8860 C.3   173  MET173      0.0692
     95  N        110.1790   69.5490   36.2790 N.3   312  TYR312     -0.1241
     96  CA       109.3450   70.0650   35.2090 C.3   312  TYR312      0.1605
     97  C        108.8020   68.9110   34.3610 C.2   312  TYR312      0.2264
     98  O        107.6780   68.9600   33.8650 O.2   312  TYR312     -0.2867
     99  CB       110.1690   71.0250   34.3540 C.3   312  TYR312      0.0534
    100  CG       109.4200   71.5940   33.1840 C.ar  312  TYR312     -0.0201
    101  CD1      109.3650   70.9080   31.9700 C.ar  312  TYR312     -0.0009
    102  CD2      108.7440   72.8060   33.2940 C.ar  312  TYR312     -0.0009
    103  CE1      108.6540   71.4150   30.8940 C.ar  312  TYR312      0.0417
    104  CE2      108.0260   73.3260   32.2210 C.ar  312  TYR312      0.0417
    105  CZ       107.9850   72.6240   31.0260 C.ar  312  TYR312      0.1957
    106  OH       107.2630   73.1210   29.9690 O.3   312  TYR312     -0.2866
    107  N        105.8030   67.5090   35.9670 N.3   315  VAL315     -0.1231
    108  CA       104.6280   68.3600   35.8720 C.3   315  VAL315      0.1692
    109  C        103.9620   68.0600   34.5350 C.2   315  VAL315      0.2591
    110  O        102.7430   67.9110   34.4530 O.2   315  VAL315     -0.2718
    111  CB       105.0030   69.8570   35.9380 C.3   315  VAL315      0.0266
    112  CG1      103.7510   70.7100   35.8370 C.3   315  VAL315      0.0020
    113  CG2      105.7380   70.1580   37.2400 C.3   315  VAL315      0.0020
    114  N        104.7700   67.9620   33.4860 N.am  316  MET316     -0.1979
    115  CA       104.2430   67.6600   32.1620 C.3   316  MET316      0.1605
    116  C        103.4840   66.3340   32.1930 C.2   316  MET316      0.2287
    117  O        102.4200   66.2130   31.5940 O.2   316  MET316     -0.2864
    118  CB       105.3800   67.6010   31.1310 C.3   316  MET316      0.0413
    119  CG       106.1030   68.9340   30.9240 C.3   316  MET316      0.0598
    120  SD       105.0200   70.2710   30.3310 S.3   316  MET316     -0.1393
    121  CE       104.4420   70.9940   31.8940 C.3   316  MET316      0.0692
    122  N        100.1600   66.7520   34.5290 N.3   319  MET319     -0.1230
    123  CA        99.1860   67.6530   33.9200 C.3   319  MET319      0.1702
    124  C         98.7300   67.2640   32.5180 C.2   319  MET319      0.2592
    125  O         97.5760   67.4930   32.1530 O.2   319  MET319     -0.2718
    126  CB        99.7420   69.0790   33.8590 C.3   319  MET319      0.0401
    127  CG        99.8730   69.7970   35.1990 C.3   319  MET319      0.0596
    128  SD       100.6230   71.4390   34.9670 S.3   319  MET319     -0.1393
    129  CE        99.2090   72.4030   34.5020 C.3   319  MET319      0.0692
    130  N         99.6190   66.6550   31.7370 N.am  320  PHE320     -0.1976
    131  CA        99.2810   66.3280   30.3610 C.3   320  PHE320      0.1639
    132  C         99.6890   64.9350   29.8870 C.2   320  PHE320      0.2290
    133  O         99.3160   64.5170   28.7740 O.2   320  PHE320     -0.2864
    134  CB        99.9480   67.3550   29.4430 C.3   320  PHE320      0.0560
    135  CG        99.7610   68.7760   29.8830 C.ar  320  PHE320     -0.0200
    136  CD1       98.4930   69.3440   29.9330 C.ar  320  PHE320     -0.0042
    137  CD2      100.8560   69.5560   30.2320 C.ar  320  PHE320     -0.0042
    138  CE1       98.3190   70.6690   30.3210 C.ar  320  PHE320     -0.0003
    139  CE2      100.6940   70.8850   30.6220 C.ar  320  PHE320     -0.0003
    140  CZ        99.4240   71.4440   30.6660 C.ar  320  PHE320     -0.0000
@<TRIPOS>BOND
     1    90    89    2
     2    54    53   ar
     3    54    52   ar
     4    53    51   ar
     5    52    50   ar
     6    51    48   ar
     7    89    88    1
     8    50    48   ar
     9    50    49   ar
    10    48    46   ar
    11    91    92    1
    12    91    88    1
    13    49    47   ar
    14    46    47   ar
    15    46    45    1
    16    45    42    1
    17    92    93    1
    18    88    87    1
    19    93    94    1
    20    79    81   ar
    21    79    77   ar
    22    42    43    1
    23    42    41    1
    24   133   132    2
    25    43    44    2
    26    87    84   am
    27    81    80   ar
    28    77    76   ar
    29   134   135    1
    30   134   131    1
    31    41    32   am
    32    85    84    2
    33   135   136   ar
    34   135   137   ar
    35   132   131    1
    36   136   138   ar
    37   106   105    1
    38    84    83    1
    39    74    73    2
    40   137   139   ar
    41   138   140   ar
    42   120   119    1
    43   120   121    1
    44   131   130    1
    45    73    72    1
    46    80    78   ar
    47   139   140   ar
    48    76    78   ar
    49    76    75    1
    50    57    58    2
    51    57    56    1
    52    61    60    1
    53    59    56    1
    54    59    60    1
    55   103   105   ar
    56   103   101   ar
    57   119   118    1
    58    32    33    2
    59    32    31    1
    60   105   104   ar
    61    82    83    1
    62   118   115    1
    63    83    86    1
    64    75    72    1
    65    30    31    1
    66    56    55    1
    67    37    39   ar
    68    37    35   ar
    69   117   116    2
    70    60    62    1
    71   130   124   am
    72    72    71    1
    73    31    34    1
    74    34    35    1
    75   101   100   ar
    76    39    40   ar
    77     8     6    1
    78   125   124    2
    79   115   116    1
    80   115   114    1
    81   104   102   ar
    82    35    36   ar
    83    71    65   am
    84   124   123    1
    85    66    65    2
    86     6     5    1
    87    63    64    1
    88    65    64    1
    89   100   102   ar
    90   100    99    1
    91    40    38   ar
    92   114   109   am
    93    64    67    1
    94    36    38   ar
    95   126   123    1
    96   126   127    1
    97    98    97    2
    98   123   122    1
    99    99    96    1
   100    97    96    1
   101     5     7    1
   102     5     2    1
   103   110   109    2
   104   129   128    1
   105   109   108    1
   106   128   127    1
   107     2     1    1
   108     2     3    1
   109    67    68    1
   110    96    95    1
   111   112   111    1
   112   108   111    1
   113   108   107    1
   114    68    69    1
   115   111   113    1
   116     3     4    2
   117    70    69    1
   118    10    11    1
   119    10     9    1
   120    13    11   am
   121    13    14    1
   122    11    12    2
   123    29    28    1
   124    17    14    1
   125    23    22    1
   126    14    15    1
   127    22    19    1
   128    21    20    2
   129    28    25    1
   130    20    24   am
   131    20    19    1
   132    25    24    1
   133    25    26    1
   134    15    16    2
   135    19    18    1
   136    27    26    2
