@<TRIPOS>MOLECULE
tmp/1zg3A01.pdb
 158 156 0 0 0
SMALL
GASTEIGER

@<TRIPOS>ATOM
      1  N        106.8290   82.8010   25.5870 N.3   177  SER177     -0.1217
      2  CA       107.2390   82.9500   24.1940 C.3   177  SER177      0.1889
      3  C        108.0080   84.2560   24.0110 C.2   177  SER177      0.2288
      4  O        108.9010   84.3550   23.1700 O.2   177  SER177     -0.2866
      5  CB       106.0120   82.9380   23.2810 C.3   177  SER177      0.2089
      6  OG       105.1600   84.0330   23.5680 O.3   177  SER177     -0.2183
      7  N        111.4650   78.6680    9.5090 N.3   199  ASP199     -0.1225
      8  CA       110.8300   78.4410   10.7960 C.3   199  ASP199      0.1805
      9  C        109.7270   77.4100   10.5860 C.2   199  ASP199      0.2598
     10  O        108.6440   77.7440   10.1150 O.2   199  ASP199     -0.2718
     11  CB       110.2570   79.7710   11.2930 C.3   199  ASP199      0.1424
     12  CG       109.7050   79.6900   12.7050 C.2   199  ASP199      0.3668
     13  OD1      109.9830   78.6980   13.4160 O.co2 199  ASP199     -0.2456
     14  OD2      108.9990   80.6410   13.1060 O.co2 199  ASP199     -0.2456
     15  N        110.0220   76.1520   10.9150 N.am  200  VAL200     -0.1966
     16  CA       109.0680   75.0540   10.7540 C.3   200  VAL200      0.1727
     17  C        108.0020   75.1120   11.8380 C.2   200  VAL200      0.2617
     18  O        108.3120   75.2530   13.0260 O.2   200  VAL200     -0.2715
     19  CB       109.7860   73.6890   10.8110 C.3   200  VAL200      0.0290
     20  CG1      108.7980   72.5680   10.5840 C.3   200  VAL200      0.0023
     21  CG2      110.8870   73.6420    9.7640 C.3   200  VAL200      0.0023
     22  N        106.7420   75.0030   11.4270 N.am  201  GLY201     -0.1940
     23  CA       105.6570   75.0790   12.3870 C.3   201  GLY201      0.2014
     24  C        105.5890   76.5030   12.9070 C.2   201  GLY201      0.2639
     25  O        105.1470   76.7460   14.0260 O.2   201  GLY201     -0.2714
     26  N        106.0220   77.4480   12.0770 N.am  202  GLY202     -0.1939
     27  CA       106.0310   78.8480   12.4680 C.3   202  GLY202      0.2014
     28  C        104.6750   79.5170   12.5670 C.2   202  GLY202      0.2639
     29  O        104.5870   80.7020   12.8930 O.2   202  GLY202     -0.2714
     30  N        103.6170   78.7640   12.2830 N.am  203  GLY203     -0.1954
     31  CA       102.2720   79.3070   12.3590 C.3   203  GLY203      0.1869
     32  C        102.0590   80.5540   11.5240 C.2   203  GLY203      0.2309
     33  O        102.3790   80.5800   10.3330 O.2   203  GLY203     -0.2863
     34  N        107.0250   83.9400   15.7770 N.3   207  VAL207     -0.1245
     35  CA       108.4110   83.6920   16.1380 C.3   207  VAL207      0.1561
     36  C        109.3810   84.3590   15.1600 C.2   207  VAL207      0.2260
     37  O        110.3970   84.9260   15.5660 O.2   207  VAL207     -0.2867
     38  CB       108.6810   82.1750   16.1960 C.3   207  VAL207      0.0252
     39  CG1      110.1640   81.9030   16.4120 C.3   207  VAL207      0.0019
     40  CG2      107.8570   81.5660   17.3270 C.3   207  VAL207      0.0019
     41  N        107.2840   78.2480    7.5320 N.3   223  PHE223     -0.1227
     42  CA       106.7110   77.0430    6.9560 C.3   223  PHE223      0.1736
     43  C        105.7360   76.3780    7.9180 C.2   223  PHE223      0.2595
     44  O        106.0540   76.1410    9.0860 O.2   223  PHE223     -0.2718
     45  CB       107.8360   76.0680    6.5840 C.3   223  PHE223      0.0547
     46  CG       107.3580   74.7670    5.9890 C.ar  223  PHE223     -0.0202
     47  CD1      106.6510   74.7470    4.7910 C.ar  223  PHE223     -0.0042
     48  CD2      107.6280   73.5590    6.6250 C.ar  223  PHE223     -0.0042
     49  CE1      106.2160   73.5410    4.2310 C.ar  223  PHE223     -0.0003
     50  CE2      107.2000   72.3460    6.0770 C.ar  223  PHE223     -0.0003
     51  CZ       106.4920   72.3370    4.8770 C.ar  223  PHE223     -0.0000
     52  N        104.5420   76.0840    7.4240 N.am  224  ASP224     -0.1960
     53  CA       103.5350   75.4390    8.2460 C.3   224  ASP224      0.1840
     54  C        102.5130   74.7720    7.3330 C.2   224  ASP224      0.2621
     55  O        102.7310   74.6710    6.1250 O.2   224  ASP224     -0.2715
     56  CB       102.8530   76.4720    9.1480 C.3   224  ASP224      0.1450
     57  CG       102.3440   75.8650   10.4360 C.2   224  ASP224      0.3671
     58  OD1      101.5260   74.9260   10.3630 O.co2 224  ASP224     -0.2456
     59  OD2      102.7660   76.3200   11.5220 O.co2 224  ASP224     -0.2456
     60  N        101.4100   74.3080    7.9120 N.am  225  GLN225     -0.1977
     61  CA       100.3500   73.6620    7.1450 C.3   225  GLN225      0.1601
     62  C         99.6230   74.6540    6.2490 C.2   225  GLN225      0.2287
     63  O         99.4230   75.8100    6.6190 O.2   225  GLN225     -0.2864
     64  CB        99.3290   73.0220    8.0800 C.3   225  GLN225      0.0394
     65  CG        99.7840   71.7390    8.7180 C.3   225  GLN225      0.0908
     66  CD        98.7390   71.1840    9.6570 C.2   225  GLN225      0.2608
     67  OE1       98.5160   71.7190   10.7440 O.2   225  GLN225     -0.2717
     68  NE2       98.0780   70.1190    9.2370 N.am  225  GLN225     -0.0878
     69  N         97.1430   76.9680    7.7910 N.3   228  VAL228     -0.1245
     70  CA        97.6640   77.9600    8.7320 C.3   228  VAL228      0.1561
     71  C         98.2570   79.1870    8.0290 C.2   228  VAL228      0.2260
     72  O         97.9530   80.3270    8.3820 O.2   228  VAL228     -0.2867
     73  CB        98.7340   77.3410    9.6550 C.3   228  VAL228      0.0252
     74  CG1       99.2350   78.3780   10.6430 C.3   228  VAL228      0.0019
     75  CG2       98.1470   76.1490   10.3970 C.3   228  VAL228      0.0019
     76  N        102.8290   73.5270    3.4990 N.3   243  GLY243     -0.1210
     77  CA       103.1970   72.1730    3.1310 C.3   243  GLY243      0.1956
     78  C        103.1070   71.1820    4.2780 C.2   243  GLY243      0.2612
     79  O        102.4280   71.4190    5.2780 O.2   243  GLY243     -0.2717
     80  N        103.8000   70.0610    4.1260 N.am  244  ASP244     -0.1959
     81  CA       103.8130   69.0130    5.1340 C.3   244  ASP244      0.1840
     82  C        105.2520   68.6920    5.4980 C.2   244  ASP244      0.2622
     83  O        105.9860   68.1060    4.7030 O.2   244  ASP244     -0.2715
     84  CB       103.1060   67.7630    4.6010 C.3   244  ASP244      0.1450
     85  CG       103.2560   66.5750    5.5250 C.2   244  ASP244      0.3671
     86  OD1      103.4210   66.7860    6.7430 O.co2 244  ASP244     -0.2456
     87  OD2      103.2000   65.4270    5.0350 O.co2 244  ASP244     -0.2456
     88  N        105.6460   69.0800    6.7050 N.am  245  MET245     -0.1963
     89  CA       107.0030   68.8700    7.1710 C.3   245  MET245      0.1736
     90  C        107.4400   67.4140    7.1640 C.2   245  MET245      0.2616
     91  O        108.6330   67.1290    7.2260 O.2   245  MET245     -0.2715
     92  CB       107.1680   69.4490    8.5710 C.3   245  MET245      0.0427
     93  CG       106.4230   68.6920    9.6330 C.3   245  MET245      0.0599
     94  SD       106.4820   69.5710   11.1810 S.3   245  MET245     -0.1393
     95  CE       108.1450   69.3930   11.5700 C.3   245  MET245      0.0692
     96  N        106.4870   66.4900    7.0850 N.am  246  PHE246     -0.1974
     97  CA       106.8330   65.0730    7.0620 C.3   246  PHE246      0.1639
     98  C        107.2270   64.6340    5.6570 C.2   246  PHE246      0.2290
     99  O        107.8690   63.5980    5.4710 O.2   246  PHE246     -0.2864
    100  CB       105.6730   64.2270    7.5920 C.3   246  PHE246      0.0560
    101  CG       105.3960   64.4450    9.0550 C.ar  246  PHE246     -0.0200
    102  CD1      104.3130   65.2140    9.4690 C.ar  246  PHE246     -0.0042
    103  CD2      106.2550   63.9250   10.0180 C.ar  246  PHE246     -0.0042
    104  CE1      104.0910   65.4680   10.8190 C.ar  246  PHE246     -0.0003
    105  CE2      106.0460   64.1710   11.3690 C.ar  246  PHE246     -0.0003
    106  CZ       104.9600   64.9460   11.7700 C.ar  246  PHE246     -0.0000
    107  N        111.5700   75.0420   16.6480 N.3   258  LYS258     -0.1231
    108  CA       111.2580   75.5760   17.9660 C.3   258  LYS258      0.1693
    109  C        110.0400   74.8890   18.5650 C.2   258  LYS258      0.2592
    110  O        108.9170   75.0540   18.0770 O.2   258  LYS258     -0.2718
    111  CB       111.0120   77.0840   17.8860 C.3   258  LYS258      0.0285
    112  CG       110.5960   77.7160   19.2110 C.3   258  LYS258      0.0035
    113  CD       110.5970   79.2330   19.1010 C.3   258  LYS258      0.0206
    114  CE       110.2150   79.8870   20.4080 C.3   258  LYS258      0.1093
    115  NZ       108.8270   79.5470   20.7850 N.3   258  LYS258     -0.1314
    116  N        110.2780   74.1190   19.6250 N.am  259  TRP259     -0.1962
    117  CA       109.2170   73.3990   20.3180 C.3   259  TRP259      0.1771
    118  C        108.3690   72.5510   19.3780 C.2   259  TRP259      0.2619
    119  O        107.1630   72.4130   19.5700 O.2   259  TRP259     -0.2715
    120  CB       108.3310   74.3890   21.0920 C.3   259  TRP259      0.0590
    121  CG       108.8570   74.7110   22.4770 C.ar  259  TRP259      0.0006
    122  CD1      109.2210   73.8110   23.4440 C.ar  259  TRP259      0.0946
    123  CD2      109.0380   76.0140   23.0590 C.ar  259  TRP259      0.0152
    124  NE1      109.6130   74.4680   24.5880 N.ar  259  TRP259     -0.2442
    125  CE2      109.5110   75.8210   24.3810 C.ar  259  TRP259      0.0810
    126  CE3      108.8460   77.3230   22.5960 C.ar  259  TRP259      0.0012
    127  CZ2      109.7950   76.8940   25.2450 C.ar  259  TRP259      0.0191
    128  CZ3      109.1300   78.3910   23.4580 C.ar  259  TRP259      0.0001
    129  CH2      109.5980   78.1650   24.7650 C.ar  259  TRP259      0.0015
    130  N        109.0070   71.9770   18.3650 N.am  260  VAL260     -0.1977
    131  CA       108.3050   71.1400   17.4050 C.3   260  VAL260      0.1596
    132  C        108.4390   69.6610   17.7360 C.2   260  VAL260      0.2287
    133  O        107.4410   68.9710   17.9400 O.2   260  VAL260     -0.2864
    134  CB       108.8350   71.3460   15.9700 C.3   260  VAL260      0.0276
    135  CG1      108.1310   70.3860   15.0180 C.3   260  VAL260      0.0022
    136  CG2      108.6090   72.7790   15.5270 C.3   260  VAL260      0.0022
    137  N        106.3560   67.6480   20.5390 N.3   263  ASP263     -0.1225
    138  CA       105.0520   67.0140   20.3860 C.3   263  ASP263      0.1805
    139  C        105.0350   65.7740   19.4940 C.2   263  ASP263      0.2597
    140  O        103.9660   65.3340   19.0790 O.2   263  ASP263     -0.2718
    141  CB       104.0430   68.0250   19.8400 C.3   263  ASP263      0.1424
    142  CG       103.9350   69.2660   20.7040 C.2   263  ASP263      0.3668
    143  OD1      103.7040   69.1300   21.9270 O.co2 263  ASP263     -0.2456
    144  OD2      104.0710   70.3840   20.1580 O.co2 263  ASP263     -0.2456
    145  N        106.1980   65.2020   19.2030 N.am  264  TRP264     -0.1976
    146  CA       106.2320   64.0280   18.3390 C.3   264  TRP264      0.1640
    147  C        107.0770   62.8800   18.8630 C.2   264  TRP264      0.2290
    148  O        108.1010   63.0980   19.5130 O.2   264  TRP264     -0.2864
    149  CB       106.7350   64.4140   16.9480 C.3   264  TRP264      0.0576
    150  CG       105.8820   65.4240   16.2560 C.ar  264  TRP264      0.0006
    151  CD1      106.0680   66.7750   16.2280 C.ar  264  TRP264      0.0946
    152  CD2      104.6950   65.1650   15.4970 C.ar  264  TRP264      0.0152
    153  NE1      105.0700   67.3750   15.4970 N.ar  264  TRP264     -0.2442
    154  CE2      104.2140   66.4100   15.0370 C.ar  264  TRP264      0.0810
    155  CE3      103.9900   64.0010   15.1640 C.ar  264  TRP264      0.0012
    156  CZ2      103.0590   66.5250   14.2590 C.ar  264  TRP264      0.0191
    157  CZ3      102.8430   64.1150   14.3920 C.ar  264  TRP264      0.0001
    158  CH2      102.3880   65.3710   13.9470 C.ar  264  TRP264      0.0015
@<TRIPOS>BOND
     1    77    76    1
     2    77    78    1
     3    80    78   am
     4    80    81    1
     5    49    47   ar
     6    49    51   ar
     7    78    79    2
     8    84    81    1
     9    84    85    1
    10    83    82    2
    11    47    46   ar
    12    51    50   ar
    13    87    85   ar
    14    81    82    1
    15    99    98    2
    16    82    88   am
    17    85    86   ar
    18    98    97    1
    19    46    45    1
    20    46    48   ar
    21    50    48   ar
    22    55    54    2
    23    62    63    2
    24    62    61    1
    25    45    42    1
    26    88    89    1
    27    42    41    1
    28    42    43    1
    29    97    96    1
    30    97   100    1
    31    96    90   am
    32    61    60    1
    33    61    64    1
    34    90    89    1
    35    90    91    2
    36    89    92    1
    37    54    60   am
    38    54    53    1
    39    52    43   am
    40    52    53    1
    41   100   101    1
    42    69    70    1
    43    43    44    2
    44    71    72    2
    45    71    70    1
    46    64    65    1
    47    53    56    1
    48    92    93    1
    49    65    66    1
    50    70    73    1
    51   101   102   ar
    52   101   103   ar
    53    56    57    1
    54    68    66   am
    55   102   104   ar
    56     7     8    1
    57    93    94    1
    58    73    75    1
    59    73    74    1
    60    66    67    2
    61    21    19    1
    62   103   105   ar
    63    10     9    2
    64    33    32    2
    65    58    57   ar
    66    57    59   ar
    67    20    19    1
    68     9     8    1
    69     9    15   am
    70    16    19    1
    71    16    15    1
    72    16    17    1
    73     8    11    1
    74   104   106   ar
    75    94    95    1
    76    11    12    1
    77   105   106   ar
    78    22    17   am
    79    22    23    1
    80    32    31    1
    81    17    18    2
    82    26    27    1
    83    26    24   am
    84    30    31    1
    85    30    28   am
    86    23    24    1
    87    27    28    1
    88    28    29    2
    89    12    14   ar
    90    12    13   ar
    91    24    25    2
    92   158   156   ar
    93   158   157   ar
    94   156   154   ar
    95   157   155   ar
    96   135   134    1
    97   154   152   ar
    98   154   153   ar
    99    36    37    2
   100    36    35    1
   101   155   152   ar
   102   152   150   ar
   103   153   151   ar
   104   136   134    1
   105    34    35    1
   106   134   131    1
   107    35    38    1
   108    38    39    1
   109    38    40    1
   110   151   150   ar
   111   150   149    1
   112   107   108    1
   113   149   146    1
   114   131   132    1
   115   131   130    1
   116   132   133    2
   117   111   108    1
   118   111   112    1
   119   108   109    1
   120   110   109    2
   121   146   147    1
   122   146   145    1
   123   130   118   am
   124   109   116   am
   125   147   148    2
   126   140   139    2
   127   113   112    1
   128   113   114    1
   129   145   139   am
   130   118   119    2
   131   118   117    1
   132   139   138    1
   133   116   117    1
   134   141   138    1
   135   141   142    1
   136   144   142   ar
   137   117   120    1
   138   138   137    1
   139   114   115    1
   140   142   143   ar
   141   120   121    1
   142   121   123   ar
   143   121   122   ar
   144   126   123   ar
   145   126   128   ar
   146   123   125   ar
   147     4     3    2
   148     5     6    1
   149     5     2    1
   150   122   124   ar
   151   128   129   ar
   152     3     2    1
   153     2     1    1
   154   125   124   ar
   155   125   127   ar
   156   129   127   ar
