@<TRIPOS>MOLECULE
tmp/1zg8A00.pdb
 151 141 0 0 0
SMALL
GASTEIGER

@<TRIPOS>ATOM
      1  N         29.6330    7.7430   61.0230 N.3    65  HIS65      -0.1241
      2  CA        29.6490    8.4630   62.2640 C.3    65  HIS65       0.1621
      3  C         28.2850    9.0130   62.5760 C.2    65  HIS65       0.2264
      4  O         27.6450    9.6490   61.7350 O.2    65  HIS65      -0.2867
      5  CB        30.7330    9.5230   62.1850 C.3    65  HIS65       0.0745
      6  CG        32.1070    8.9290   62.1290 C.ar   65  HIS65       0.0817
      7  ND1       33.1100    9.4830   61.3880 N.ar   65  HIS65      -0.2268
      8  CD2       32.6060    7.8920   62.8110 C.ar   65  HIS65       0.1154
      9  CE1       34.1910    8.7990   61.6700 C.ar   65  HIS65       0.1986
     10  NE2       33.9320    7.8310   62.5230 N.ar   65  HIS65      -0.2212
     11  N         27.1530   12.8860   62.1340 N.3    68  GLU68      -0.1245
     12  CA        27.2690   13.4500   60.7890 C.3    68  GLU68       0.1567
     13  C         25.9900   13.1980   59.9680 C.2    68  GLU68       0.2260
     14  O         25.9810   12.5090   58.9490 O.2    68  GLU68      -0.2867
     15  CB        28.5310   12.8640   60.1240 C.3    68  GLU68       0.0388
     16  CG        29.7950   13.2050   60.8970 C.3    68  GLU68       0.1160
     17  CD        31.0130   12.3560   60.5190 C.2    68  GLU68       0.3649
     18  OE1       31.0970   11.8840   59.3860 O.co2  68  GLU68      -0.2457
     19  OE2       31.8680   12.1650   61.3860 O.co2  68  GLU68      -0.2457
     20  N         29.5270    9.7440   68.2600 N.3   123  ARG123     -0.1245
     21  CA        30.2580    9.4600   67.0360 C.3   123  ARG123      0.1563
     22  C         30.5010    7.9840   66.7710 C.2   123  ARG123      0.2260
     23  O         30.2620    7.4850   65.6590 O.2   123  ARG123     -0.2867
     24  CB        31.6160   10.1890   67.1310 C.3   123  ARG123      0.0307
     25  CG        32.7840    9.5470   66.4120 C.3   123  ARG123      0.0489
     26  CD        34.1120   10.2800   66.7130 C.3   123  ARG123      0.2205
     27  NE        35.2110    9.8270   65.8370 N.pl3 123  ARG123     -0.0865
     28  CZ        35.3630   10.1890   64.5590 C.cat 123  ARG123      0.5346
     29  NH1       34.4980   11.0150   63.9970 N.pl3 123  ARG123      0.1354
     30  NH2       36.3560    9.7090   63.8190 N.pl3 123  ARG123      0.1354
     31  N         35.6600    4.3590   61.8710 N.3   140  ASN140     -0.1225
     32  CA        36.6530    4.6910   60.8580 C.3   140  ASN140      0.1785
     33  C         38.0710    4.5970   61.4030 C.2   140  ASN140      0.2597
     34  O         38.9820    5.2840   60.9280 O.2   140  ASN140     -0.2718
     35  CB        36.4210    6.0620   60.2230 C.3   140  ASN140      0.1169
     36  CG        36.8770    6.1050   58.7670 C.2   140  ASN140      0.2627
     37  OD1       36.7940    5.0970   58.0560 O.2   140  ASN140     -0.2716
     38  ND2       37.3270    7.2730   58.3090 N.am  140  ASN140     -0.0877
     39  N         38.2260    3.7700   62.4340 N.am  141  ARG141     -0.1979
     40  CA        39.5060    3.4920   63.0860 C.3   141  ARG141      0.1597
     41  C         39.5780    1.9660   63.3290 C.2   141  ARG141      0.2287
     42  O         40.5420    1.4470   63.8950 O.2   141  ARG141     -0.2864
     43  CB        39.5560    4.2140   64.4360 C.3   141  ARG141      0.0334
     44  CG        40.5770    5.3130   64.5560 C.3   141  ARG141      0.0492
     45  CD        40.2520    6.5150   63.7180 C.3   141  ARG141      0.2205
     46  NE        40.9000    7.7090   64.2590 N.pl3 141  ARG141     -0.0865
     47  CZ        40.7520    8.9410   63.7700 C.cat 141  ARG141      0.5346
     48  NH1       39.9750    9.1550   62.7080 N.pl3 141  ARG141      0.1354
     49  NH2       41.3570    9.9710   64.3630 N.pl3 141  ARG141      0.1354
     50  N         31.0090   11.5740   54.7210 N.3   193  HIS193     -0.1226
     51  CA        31.1490   12.1290   56.0610 C.3   193  HIS193      0.1752
     52  C         30.8600   13.6280   56.0850 C.2   193  HIS193      0.2596
     53  O         30.4180   14.1960   55.1030 O.2   193  HIS193     -0.2718
     54  CB        32.5960   11.8930   56.5280 C.3   193  HIS193      0.0759
     55  CG        32.9790   10.4490   56.6530 C.ar  193  HIS193      0.0818
     56  ND1       33.5730    9.9720   57.8030 N.ar  193  HIS193     -0.2268
     57  CD2       32.7060    9.4010   55.8460 C.ar  193  HIS193      0.1154
     58  CE1       33.6350    8.6660   57.6660 C.ar  193  HIS193      0.1986
     59  NE2       33.1180    8.2660   56.5070 N.ar  193  HIS193     -0.2212
     60  N         31.0970   14.2560   57.2340 N.am  194  SER194     -0.1952
     61  CA        30.9890   15.6990   57.4220 C.3   194  SER194      0.1924
     62  C         31.7450   15.9460   58.7410 C.2   194  SER194      0.2314
     63  O         32.0410   14.9900   59.4650 O.2   194  SER194     -0.2863
     64  CB        29.5480   16.2290   57.4390 C.3   194  SER194      0.2116
     65  OG        28.9660   16.1820   58.7360 O.3   194  SER194     -0.2180
     66  N         38.9070   13.5230   50.1090 N.3   200  LEU200     -0.1245
     67  CA        40.1710   12.9050   50.4550 C.3   200  LEU200      0.1561
     68  C         40.3370   11.5650   49.7780 C.2   200  LEU200      0.2260
     69  O         39.3510   10.9430   49.3530 O.2   200  LEU200     -0.2867
     70  CB        40.2550   12.7620   51.9760 C.3   200  LEU200      0.0270
     71  CG        39.9890   14.1570   52.5480 C.3   200  LEU200      0.0019
     72  CD1       39.0650   14.1430   53.7230 C.3   200  LEU200      0.0001
     73  CD2       41.2920   14.8470   52.8390 C.3   200  LEU200      0.0001
     74  N         45.8550    7.8270   54.7140 N.3   204  SER204     -0.1217
     75  CA        45.7660    8.5450   55.9660 C.3   204  SER204      0.1889
     76  C         46.5640    7.7840   57.0360 C.2   204  SER204      0.2288
     77  O         47.1050    8.3910   57.9570 O.2   204  SER204     -0.2866
     78  CB        44.3050    8.7240   56.3930 C.3   204  SER204      0.2089
     79  OG        43.6490    9.6870   55.5860 O.3   204  SER204     -0.2183
     80  N         44.2310   16.2450   55.9710 N.3   244  ILE244     -0.1231
     81  CA        43.4810   16.3090   57.2030 C.3   244  ILE244      0.1692
     82  C         44.3340   15.8000   58.3610 C.2   244  ILE244      0.2592
     83  O         44.7580   16.5990   59.1900 O.2   244  ILE244     -0.2718
     84  CB        42.0640   15.6440   57.0600 C.3   244  ILE244      0.0266
     85  CG1       41.1900   15.9640   58.2640 C.3   244  ILE244      0.0019
     86  CG2       42.1450   14.1550   56.8610 C.3   244  ILE244      0.0020
     87  CD1       39.7380   15.5600   58.0510 C.3   244  ILE244      0.0001
     88  N         44.7220   14.5310   58.3590 N.am  245  TYR245     -0.1976
     89  CA        45.5210   14.0170   59.4750 C.3   245  TYR245      0.1639
     90  C         45.8240   12.5290   59.4170 C.2   245  TYR245      0.2290
     91  O         45.0250   11.7490   58.8810 O.2   245  TYR245     -0.2864
     92  CB        44.8080   14.2930   60.8330 C.3   245  TYR245      0.0560
     93  CG        43.2840   13.9920   60.9300 C.ar  245  TYR245     -0.0198
     94  CD1       42.6600   12.9900   60.1520 C.ar  245  TYR245     -0.0009
     95  CD2       42.4670   14.7420   61.7860 C.ar  245  TYR245     -0.0009
     96  CE1       41.2590   12.7530   60.2180 C.ar  245  TYR245      0.0417
     97  CE2       41.0670   14.5130   61.8610 C.ar  245  TYR245      0.0417
     98  CZ        40.4720   13.5260   61.0730 C.ar  245  TYR245      0.1957
     99  OH        39.0970   13.3650   61.1290 O.3   245  TYR245     -0.2866
    100  N         45.7060    8.9650   60.4330 N.3   247  ALA247     -0.1245
    101  CA        44.7800    8.2260   61.2450 C.3   247  ALA247      0.1562
    102  C         44.7330    6.8620   60.6070 C.2   247  ALA247      0.2260
    103  O         44.5720    6.7200   59.3950 O.2   247  ALA247     -0.2867
    104  CB        43.4250    8.8850   61.2440 C.3   247  ALA247      0.0290
    105  N         41.2750    3.5190   58.7080 N.3   250  GLY250     -0.1225
    106  CA        40.2230    4.1120   57.8980 C.3   250  GLY250      0.1811
    107  C         39.7630    3.1330   56.8380 C.2   250  GLY250      0.2280
    108  O         40.5870    2.3650   56.3210 O.2   250  GLY250     -0.2866
    109  N         38.6250    3.9340   53.8350 N.3   252  ASP252     -0.1225
    110  CA        39.0390    4.3700   52.5160 C.3   252  ASP252      0.1805
    111  C         40.3970    3.7550   52.1620 C.2   252  ASP252      0.2597
    112  O         40.5540    3.2050   51.0670 O.2   252  ASP252     -0.2718
    113  CB        39.0200    5.9100   52.3850 C.3   252  ASP252      0.1424
    114  CG        39.8400    6.6060   53.4430 C.2   252  ASP252      0.3668
    115  OD1       40.3460    5.9360   54.3590 O.co2 252  ASP252     -0.2456
    116  OD2       39.9930    7.8340   53.3600 O.co2 252  ASP252     -0.2456
    117  N         41.3420    3.7680   53.1070 N.am  253  ASP253     -0.1974
    118  CA        42.6810    3.2050   52.8930 C.3   253  ASP253      0.1709
    119  C         42.6080    1.7180   52.6620 C.2   253  ASP253      0.2293
    120  O         43.2720    1.1780   51.7850 O.2   253  ASP253     -0.2864
    121  CB        43.5720    3.4820   54.1020 C.3   253  ASP253      0.1436
    122  CG        43.9520    4.9410   54.2200 C.2   253  ASP253      0.3671
    123  OD1       43.7970    5.6940   53.2450 O.co2 253  ASP253     -0.2456
    124  OD2       44.4020    5.3490   55.2940 O.co2 253  ASP253     -0.2456
    125  N         36.9760    9.7650   50.4970 N.3   265  THR265     -0.1218
    126  CA        36.2600   10.1310   51.7110 C.3   265  THR265      0.1862
    127  C         35.7680   11.5390   51.4450 C.2   265  THR265      0.2287
    128  O         36.5440   12.4040   51.0900 O.2   265  THR265     -0.2866
    129  CB        37.1550   10.1610   52.9730 C.3   265  THR265      0.1770
    130  OG1       37.5880    8.8400   53.2770 O.3   265  THR265     -0.2211
    131  CG2       36.3590   10.7110   54.1880 C.3   265  THR265      0.0375
    132  N         33.8910   14.9090   52.8930 N.3   267  GLU267     -0.1245
    133  CA        33.5480   15.6570   54.1060 C.3   267  GLU267      0.1567
    134  C         32.6630   16.7260   53.5310 C.2   267  GLU267      0.2260
    135  O         33.1420   17.5550   52.7580 O.2   267  GLU267     -0.2867
    136  CB        34.7680   16.3210   54.7470 C.3   267  GLU267      0.0388
    137  CG        35.6750   15.3910   55.5190 C.3   267  GLU267      0.1160
    138  CD        35.0940   15.0170   56.8520 C.2   267  GLU267      0.3649
    139  OE1       35.8130   15.0920   57.8570 O.co2 267  GLU267     -0.2457
    140  OE2       33.9180   14.6540   56.9200 O.co2 267  GLU267     -0.2457
    141  N         28.6400   19.7380   62.7920 N.3   276  PHE276     -0.1241
    142  CA        27.8060   18.5390   62.7090 C.3   276  PHE276      0.1605
    143  C         26.3360   18.8630   62.7900 C.2   276  PHE276      0.2264
    144  O         25.5190   18.1020   62.3010 O.2   276  PHE276     -0.2867
    145  CB        28.1720   17.5220   63.8060 C.3   276  PHE276      0.0534
    146  CG        29.6060   17.0800   63.7570 C.ar  276  PHE276     -0.0203
    147  CD1       30.0990   16.3900   62.6480 C.ar  276  PHE276     -0.0042
    148  CD2       30.4700   17.3820   64.7950 C.ar  276  PHE276     -0.0042
    149  CE1       31.4230   16.0070   62.5770 C.ar  276  PHE276     -0.0003
    150  CE2       31.8020   17.0030   64.7330 C.ar  276  PHE276     -0.0003
    151  CZ        32.2770   16.3140   63.6180 C.ar  276  PHE276     -0.0000
@<TRIPOS>BOND
     1    69    68    2
     2    68    67    1
     3    66    67    1
     4    67    70    1
     5   125   126    1
     6   112   111    2
     7   128   127    2
     8   127   126    1
     9   126   129    1
    10   120   119    2
    11    70    71    1
    12   111   110    1
    13   111   117   am
    14   113   110    1
    15   113   114    1
    16   110   109    1
    17    71    73    1
    18    71    72    1
    19   119   118    1
    20   135   134    2
    21   132   133    1
    22   118   117    1
    23   118   121    1
    24   129   130    1
    25   129   131    1
    26   123   122   ar
    27   116   114   ar
    28   114   115   ar
    29   134   133    1
    30   121   122    1
    31   133   136    1
    32   122   124   ar
    33    74    75    1
    34    50    51    1
    35   136   137    1
    36    53    52    2
    37   137   138    1
    38    79    78    1
    39    57    59   ar
    40    57    55   ar
    41    75    78    1
    42    75    76    1
    43    80    81    1
    44    51    52    1
    45    51    54    1
    46    52    60   am
    47   108   107    2
    48    59    58   ar
    49    54    55    1
    50    55    56   ar
    51   107   106    1
    52   138   140   ar
    53   138   139   ar
    54    86    84    1
    55    76    77    2
    56    84    81    1
    57    84    85    1
    58    81    82    1
    59    60    61    1
    60    61    64    1
    61    61    62    1
    62    64    65    1
    63    58    56   ar
    64   106   105    1
    65    87    85    1
    66    37    36    2
    67    38    36   am
    68    88    82   am
    69    88    89    1
    70    82    83    2
    71    62    63    2
    72    36    35    1
    73    91    90    2
    74    14    13    2
    75    18    17   ar
    76   103   102    2
    77    90    89    1
    78    89    92    1
    79    13    12    1
    80    15    12    1
    81    15    16    1
    82    94    96   ar
    83    94    93   ar
    84    96    98   ar
    85    35    32    1
    86   100   101    1
    87    17    16    1
    88    17    19   ar
    89   102   101    1
    90    12    11    1
    91    92    93    1
    92    32    33    1
    93    32    31    1
    94    34    33    2
    95    93    95   ar
    96     1     2    1
    97    98    99    1
    98    98    97   ar
    99   104   101    1
   100     7     9   ar
   101     7     6   ar
   102    33    39   am
   103     9    10   ar
   104     4     3    2
   105    95    97   ar
   106     6     5    1
   107     6     8   ar
   108     5     2    1
   109     2     3    1
   110   144   143    2
   111    39    40    1
   112    10     8   ar
   113   149   147   ar
   114   149   151   ar
   115   147   146   ar
   116    48    47    1
   117   142   143    1
   118   142   141    1
   119   142   145    1
   120    40    41    1
   121    40    43    1
   122    41    42    2
   123   151   150   ar
   124    45    46    1
   125    45    44    1
   126   146   145    1
   127   146   148   ar
   128    47    46    2
   129    47    49    1
   130    30    28    1
   131    29    28    1
   132    43    44    1
   133    28    27    2
   134   150   148   ar
   135    23    22    2
   136    27    26    1
   137    25    26    1
   138    25    24    1
   139    22    21    1
   140    21    24    1
   141    21    20    1
