@<TRIPOS>MOLECULE
tmp/1zg9A00.pdb
 151 141 0 0 0
SMALL
GASTEIGER

@<TRIPOS>ATOM
      1  N         29.3400    8.1260   60.8280 N.3    65  HIS65      -0.1241
      2  CA        29.3780    8.8640   62.0920 C.3    65  HIS65       0.1621
      3  C         28.0120    9.4290   62.4280 C.2    65  HIS65       0.2264
      4  O         27.4280   10.1850   61.6490 O.2    65  HIS65      -0.2867
      5  CB        30.4720    9.9450   62.0680 C.3    65  HIS65       0.0745
      6  CG        31.8750    9.3730   61.9830 C.ar   65  HIS65       0.0817
      7  ND1       32.8700    9.9610   61.2610 N.ar   65  HIS65      -0.2268
      8  CD2       32.3860    8.3100   62.6250 C.ar   65  HIS65       0.1154
      9  CE1       33.9520    9.2660   61.4650 C.ar   65  HIS65       0.1986
     10  NE2       33.7080    8.2440   62.2990 N.ar   65  HIS65      -0.2212
     11  N         26.7590   13.4220   62.0540 N.3    68  GLU68      -0.1245
     12  CA        26.8610   14.0400   60.7060 C.3    68  GLU68       0.1567
     13  C         25.5980   13.8440   59.8670 C.2    68  GLU68       0.2260
     14  O         25.6170   13.2070   58.7830 O.2    68  GLU68      -0.2867
     15  CB        28.0430   13.4320   59.9940 C.3    68  GLU68       0.0388
     16  CG        29.3360   13.8360   60.6440 C.3    68  GLU68       0.1160
     17  CD        30.4830   12.8980   60.3140 C.2    68  GLU68       0.3649
     18  OE1       31.4630   12.8370   61.0790 O.co2  68  GLU68      -0.2457
     19  OE2       30.4520   12.2450   59.2560 O.co2  68  GLU68      -0.2457
     20  N         29.1130   10.2070   68.0790 N.3   123  ARG123     -0.1245
     21  CA        29.8280    9.8950   66.8450 C.3   123  ARG123      0.1563
     22  C         30.0690    8.4010   66.6300 C.2   123  ARG123      0.2260
     23  O         29.8960    7.8790   65.5180 O.2   123  ARG123     -0.2867
     24  CB        31.1780   10.6500   66.8920 C.3   123  ARG123      0.0307
     25  CG        32.3640   10.0020   66.1970 C.3   123  ARG123      0.0489
     26  CD        33.6640   10.7270   66.4990 C.3   123  ARG123      0.2205
     27  NE        34.7720   10.2130   65.6860 N.pl3 123  ARG123     -0.0865
     28  CZ        35.1390   10.7240   64.5130 C.cat 123  ARG123      0.5346
     29  NH1       34.4910   11.7600   64.0210 N.pl3 123  ARG123      0.1354
     30  NH2       36.1720   10.2410   63.8400 N.pl3 123  ARG123      0.1354
     31  N         35.2210    4.6650   61.7970 N.3   140  ASN140     -0.1225
     32  CA        36.2320    5.0480   60.8060 C.3   140  ASN140      0.1785
     33  C         37.6550    4.9920   61.3070 C.2   140  ASN140      0.2597
     34  O         38.5220    5.6770   60.7690 O.2   140  ASN140     -0.2718
     35  CB        35.9710    6.4020   60.1820 C.3   140  ASN140      0.1169
     36  CG        36.3730    6.4280   58.7330 C.2   140  ASN140      0.2627
     37  OD1       36.2710    5.4070   58.0440 O.2   140  ASN140     -0.2716
     38  ND2       36.8640    7.5590   58.2630 N.am  140  ASN140     -0.0877
     39  N         37.8570    4.2470   62.3910 N.am  141  ARG141     -0.1979
     40  CA        39.1660    3.9940   62.9890 C.3   141  ARG141      0.1597
     41  C         39.1840    2.4750   63.1930 C.2   141  ARG141      0.2287
     42  O         40.1020    1.9400   63.8120 O.2   141  ARG141     -0.2864
     43  CB        39.2900    4.6310   64.3840 C.3   141  ARG141      0.0334
     44  CG        39.3530    6.1300   64.4480 C.3   141  ARG141      0.0492
     45  CD        40.5270    6.6650   63.6820 C.3   141  ARG141      0.2205
     46  NE        40.5400    8.1100   63.7680 N.pl3 141  ARG141     -0.0865
     47  CZ        39.6540    8.8960   63.1630 C.cat 141  ARG141      0.5346
     48  NH1       38.6790    8.3720   62.4200 N.pl3 141  ARG141      0.1354
     49  NH2       39.7400   10.2120   63.3130 N.pl3 141  ARG141      0.1354
     50  N         30.6240   11.9870   54.6070 N.3   193  HIS193     -0.1226
     51  CA        30.7600   12.5270   55.9760 C.3   193  HIS193      0.1752
     52  C         30.5080   14.0360   55.9770 C.2   193  HIS193      0.2596
     53  O         30.1740   14.6170   54.9550 O.2   193  HIS193     -0.2718
     54  CB        32.2010   12.3230   56.5190 C.3   193  HIS193      0.0759
     55  CG        32.5970   10.9000   56.7230 C.ar  193  HIS193      0.0818
     56  ND1       32.5350   10.3110   57.9760 N.ar  193  HIS193     -0.2268
     57  CD2       33.0470    9.9870   55.8050 C.ar  193  HIS193      0.1154
     58  CE1       32.9290    9.0470   57.7690 C.ar  193  HIS193      0.1986
     59  NE2       33.2490    8.8210   56.5080 N.ar  193  HIS193     -0.2212
     60  N         30.6920   14.6570   57.1430 N.am  194  SER194     -0.1952
     61  CA        30.6170   16.1010   57.3240 C.3   194  SER194      0.1924
     62  C         31.3720   16.3820   58.6330 C.2   194  SER194      0.2314
     63  O         31.7000   15.4450   59.3740 O.2   194  SER194     -0.2863
     64  CB        29.1800   16.6540   57.3640 C.3   194  SER194      0.2116
     65  OG        28.5640   16.3990   58.6030 O.3   194  SER194     -0.2180
     66  N         38.5270   13.8500   50.1110 N.3   200  LEU200     -0.1245
     67  CA        39.7950   13.2180   50.4320 C.3   200  LEU200      0.1561
     68  C         39.9610   11.9120   49.7110 C.2   200  LEU200      0.2260
     69  O         38.9810   11.2820   49.3620 O.2   200  LEU200     -0.2867
     70  CB        39.8590   12.9550   51.9450 C.3   200  LEU200      0.0270
     71  CG        39.4480   14.1240   52.8510 C.3   200  LEU200      0.0019
     72  CD1       39.3830   13.7240   54.3080 C.3   200  LEU200      0.0001
     73  CD2       40.4150   15.2800   52.6560 C.3   200  LEU200      0.0001
     74  N         45.2610    8.2640   54.5760 N.3   204  SER204     -0.1217
     75  CA        45.1730    9.0220   55.8090 C.3   204  SER204      0.1889
     76  C         45.9720    8.3160   56.9130 C.2   204  SER204      0.2288
     77  O         46.4920    8.9590   57.8210 O.2   204  SER204     -0.2866
     78  CB        43.7080    9.2480   56.2240 C.3   204  SER204      0.2089
     79  OG        43.0470   10.1520   55.3430 O.3   204  SER204     -0.2183
     80  N         43.4400   16.6990   55.7640 N.3   244  ILE244     -0.1231
     81  CA        42.6060   16.8670   56.9430 C.3   244  ILE244      0.1692
     82  C         43.5190   16.5850   58.1610 C.2   244  ILE244      0.2592
     83  O         43.8390   17.5100   58.9240 O.2   244  ILE244     -0.2718
     84  CB        41.3060   15.9830   56.8540 C.3   244  ILE244      0.0266
     85  CG1       40.3390   16.3020   57.9930 C.3   244  ILE244      0.0019
     86  CG2       41.6330   14.4980   56.8660 C.3   244  ILE244      0.0020
     87  CD1       40.1900   17.7480   58.2860 C.3   244  ILE244      0.0001
     88  N         44.0510   15.3680   58.2520 N.am  245  TYR245     -0.1976
     89  CA        44.9760   14.9420   59.3180 C.3   245  TYR245      0.1639
     90  C         45.1530   13.4480   59.2010 C.2   245  TYR245      0.2290
     91  O         44.2820   12.7600   58.6490 O.2   245  TYR245     -0.2864
     92  CB        44.4730   15.2800   60.7410 C.3   245  TYR245      0.0560
     93  CG        43.0090   14.9520   61.0210 C.ar  245  TYR245     -0.0198
     94  CD1       42.4930   13.6780   60.7720 C.ar  245  TYR245     -0.0009
     95  CD2       42.1240   15.9390   61.4870 C.ar  245  TYR245     -0.0009
     96  CE1       41.1330   13.3920   60.9700 C.ar  245  TYR245      0.0417
     97  CE2       40.7700   15.6660   61.6890 C.ar  245  TYR245      0.0417
     98  CZ        40.2770   14.3890   61.4230 C.ar  245  TYR245      0.1957
     99  OH        38.9330   14.0980   61.5850 O.3   245  TYR245     -0.2866
    100  N         45.1140    9.6510   60.1170 N.3   247  ALA247     -0.1245
    101  CA        44.1620    8.9170   60.9200 C.3   247  ALA247      0.1562
    102  C         44.1180    7.5110   60.3680 C.2   247  ALA247      0.2260
    103  O         43.7550    7.3090   59.2130 O.2   247  ALA247     -0.2867
    104  CB        42.7990    9.5690   60.8120 C.3   247  ALA247      0.0290
    105  N         40.6920    3.9800   58.3600 N.3   250  GLY250     -0.1225
    106  CA        39.5300    4.4940   57.6550 C.3   250  GLY250      0.1811
    107  C         39.1220    3.5490   56.5600 C.2   250  GLY250      0.2280
    108  O         39.9830    2.8790   55.9900 O.2   250  GLY250     -0.2866
    109  N         37.9750    4.3110   53.5790 N.3   252  ASP252     -0.1225
    110  CA        38.4630    4.7450   52.2780 C.3   252  ASP252      0.1805
    111  C         39.8410    4.1210   51.9930 C.2   252  ASP252      0.2597
    112  O         40.0330    3.5120   50.9300 O.2   252  ASP252     -0.2718
    113  CB        38.4630    6.2800   52.1110 C.3   252  ASP252      0.1424
    114  CG        39.3180    7.0350   53.1410 C.2   252  ASP252      0.3668
    115  OD1       39.8530    6.4440   54.0860 O.co2 252  ASP252     -0.2456
    116  OD2       39.4330    8.2600   52.9970 O.co2 252  ASP252     -0.2456
    117  N         40.7390    4.1710   52.9720 N.am  253  ASP253     -0.1974
    118  CA        42.0690    3.6040   52.8000 C.3   253  ASP253      0.1709
    119  C         42.0020    2.1050   52.6280 C.2   253  ASP253      0.2293
    120  O         42.6640    1.5380   51.7490 O.2   253  ASP253     -0.2864
    121  CB        42.9850    3.9600   53.9690 C.3   253  ASP253      0.1436
    122  CG        43.4230    5.4150   53.9560 C.2   253  ASP253      0.3671
    123  OD1       43.2250    6.1430   52.9550 O.co2 253  ASP253     -0.2456
    124  OD2       43.9700    5.8420   54.9850 O.co2 253  ASP253     -0.2456
    125  N         36.5200   10.2010   50.2860 N.3   265  THR265     -0.1218
    126  CA        35.7380   10.5380   51.4640 C.3   265  THR265      0.1862
    127  C         35.2640   11.9780   51.2220 C.2   265  THR265      0.2287
    128  O         36.0760   12.8540   50.9300 O.2   265  THR265     -0.2866
    129  CB        36.5720   10.5370   52.7630 C.3   265  THR265      0.1770
    130  OG1       36.9370    9.2050   53.1250 O.3   265  THR265     -0.2211
    131  CG2       35.7760   11.1520   53.8900 C.3   265  THR265      0.0375
    132  N         33.5030   15.3270   52.7010 N.3   267  GLU267     -0.1245
    133  CA        33.2240   16.0570   53.9250 C.3   267  GLU267      0.1567
    134  C         32.3660   17.1900   53.4110 C.2   267  GLU267      0.2260
    135  O         32.8580   18.0780   52.7240 O.2   267  GLU267     -0.2867
    136  CB        34.5180   16.6020   54.5260 C.3   267  GLU267      0.0388
    137  CG        35.3560   15.5620   55.2420 C.3   267  GLU267      0.1160
    138  CD        34.8580   15.3270   56.6560 C.2   267  GLU267      0.3649
    139  OE1       33.6280   15.2180   56.8490 O.co2 267  GLU267     -0.2457
    140  OE2       35.6880   15.2950   57.5970 O.co2 267  GLU267     -0.2457
    141  N         28.2100   20.2520   62.6420 N.3   276  PHE276     -0.1241
    142  CA        27.3740   19.0400   62.4950 C.3   276  PHE276      0.1605
    143  C         25.8790   19.3700   62.5520 C.2   276  PHE276      0.2264
    144  O         25.0460   18.6500   61.9780 O.2   276  PHE276     -0.2867
    145  CB        27.6920   18.0320   63.6060 C.3   276  PHE276      0.0534
    146  CG        29.0890   17.5530   63.5750 C.ar  276  PHE276     -0.0203
    147  CD1       29.5550   16.8290   62.4910 C.ar  276  PHE276     -0.0042
    148  CD2       29.9450   17.8040   64.6320 C.ar  276  PHE276     -0.0042
    149  CE1       30.8370   16.3600   62.4590 C.ar  276  PHE276     -0.0003
    150  CE2       31.2530   17.3250   64.6100 C.ar  276  PHE276     -0.0003
    151  CZ        31.6920   16.6030   63.5210 C.ar  276  PHE276     -0.0000
@<TRIPOS>BOND
     1    69    68    2
     2    68    67    1
     3    66    67    1
     4   125   126    1
     5    67    70    1
     6   112   111    2
     7   128   127    2
     8   127   126    1
     9   126   129    1
    10   120   119    2
    11    70    71    1
    12   111   110    1
    13   111   117   am
    14   113   110    1
    15   113   114    1
    16   110   109    1
    17   119   118    1
    18    73    71    1
    19   132   133    1
    20   135   134    2
    21   129   130    1
    22   129   131    1
    23   118   117    1
    24   118   121    1
    25    71    72    1
    26   123   122   ar
    27   116   114   ar
    28   114   115   ar
    29   134   133    1
    30   133   136    1
    31   122   121    1
    32   122   124   ar
    33   136   137    1
    34    74    75    1
    35    50    51    1
    36    53    52    2
    37   137   138    1
    38    79    78    1
    39    80    81    1
    40    57    59   ar
    41    57    55   ar
    42    75    78    1
    43    75    76    1
    44    51    52    1
    45    51    54    1
    46    52    60   am
    47   108   107    2
    48    59    58   ar
    49    54    55    1
    50   107   106    1
    51   138   139   ar
    52   138   140   ar
    53    55    56   ar
    54    84    86    1
    55    84    81    1
    56    84    85    1
    57    76    77    2
    58    81    82    1
    59    60    61    1
    60    61    64    1
    61    61    62    1
    62    64    65    1
    63   106   105    1
    64    58    56   ar
    65    85    87    1
    66    37    36    2
    67    82    88   am
    68    82    83    2
    69    88    89    1
    70    38    36   am
    71    62    63    2
    72    91    90    2
    73    36    35    1
    74    14    13    2
    75    90    89    1
    76   103   102    2
    77    19    17   ar
    78    89    92    1
    79    13    12    1
    80    15    16    1
    81    15    12    1
    82   100   101    1
    83    35    32    1
    84    17    16    1
    85    17    18   ar
    86   102   101    1
    87    12    11    1
    88    92    93    1
    89    34    33    2
    90    94    96   ar
    91    94    93   ar
    92    32    33    1
    93    32    31    1
    94   104   101    1
    95     1     2    1
    96    96    98   ar
    97    93    95   ar
    98     7     9   ar
    99     7     6   ar
   100    33    39   am
   101    98    99    1
   102    98    97   ar
   103     9    10   ar
   104    95    97   ar
   105     4     3    2
   106   144   143    2
   107     6     5    1
   108     6     8   ar
   109     5     2    1
   110     2     3    1
   111    10     8   ar
   112    39    40    1
   113    48    47    1
   114   149   147   ar
   115   149   151   ar
   116   147   146   ar
   117   142   143    1
   118   142   141    1
   119   142   145    1
   120    40    41    1
   121    40    43    1
   122    47    49    1
   123    47    46    2
   124    41    42    2
   125   151   150   ar
   126   146   145    1
   127   146   148   ar
   128    45    46    1
   129    45    44    1
   130    30    28    1
   131    29    28    1
   132    43    44    1
   133    28    27    2
   134   150   148   ar
   135    23    22    2
   136    27    26    1
   137    25    26    1
   138    25    24    1
   139    22    21    1
   140    21    24    1
   141    21    20    1
