@<TRIPOS>MOLECULE
tmp/1zgaA00.pdb
 156 149 0 0 0
SMALL
GASTEIGER

@<TRIPOS>ATOM
      1  N        102.9850   82.2750   35.0690 N.3   115  ILE115     -0.1245
      2  CA       103.3320   80.8610   35.0940 C.3   115  ILE115      0.1561
      3  C        103.3900   80.3410   36.5270 C.2   115  ILE115      0.2260
      4  O        103.0250   79.1930   36.8000 O.2   115  ILE115     -0.2867
      5  CB       104.6850   80.6010   34.3870 C.3   115  ILE115      0.0252
      6  CG1      104.5220   80.7950   32.8770 C.3   115  ILE115      0.0019
      7  CG2      105.1690   79.1900   34.6870 C.3   115  ILE115      0.0019
      8  CD1      105.8040   80.6230   32.0780 C.3   115  ILE115      0.0001
      9  N         99.7840   80.0220   37.5310 N.3   118  GLY118     -0.1210
     10  CA        99.1550   78.8870   36.8970 C.3   118  GLY118      0.1956
     11  C         99.6430   77.5440   37.4030 C.2   118  GLY118      0.2611
     12  O         98.8440   76.6530   37.6820 O.2   118  GLY118     -0.2717
     13  N        100.9560   77.3930   37.5210 N.am  119  ALA119     -0.1979
     14  CA       101.5320   76.1430   37.9900 C.3   119  ALA119      0.1597
     15  C        101.1020   75.8020   39.4080 C.2   119  ALA119      0.2287
     16  O        100.9640   74.6290   39.7540 O.2   119  ALA119     -0.2864
     17  CB       103.0540   76.2080   37.9120 C.3   119  ALA119      0.0319
     18  N         93.6580   74.2980   40.5620 N.3   123  SER123     -0.1202
     19  CA        93.3580   73.3820   39.4700 C.3   123  SER123      0.2020
     20  C         94.5850   72.5550   39.0880 C.2   123  SER123      0.2619
     21  O         94.4740   71.5630   38.3690 O.2   123  SER123     -0.2717
     22  CB        92.8540   74.1500   38.2460 C.3   123  SER123      0.2103
     23  OG        93.8750   74.9580   37.6870 O.3   123  SER123     -0.2182
     24  N         95.7540   72.9680   39.5660 N.am  124  SER124     -0.1951
     25  CA        96.9870   72.2390   39.2950 C.3   124  SER124      0.1924
     26  C         97.3330   71.3180   40.4510 C.2   124  SER124      0.2314
     27  O         97.9160   70.2550   40.2470 O.2   124  SER124     -0.2863
     28  CB        98.1700   73.2000   39.1000 C.3   124  SER124      0.2116
     29  OG        98.2120   73.7510   37.7950 O.3   124  SER124     -0.2180
     30  N         91.3100   68.4470   31.5850 N.3   152  PHE152     -0.1241
     31  CA        91.7220   69.7910   31.9330 C.3   152  PHE152      0.1605
     32  C         91.1980   70.7870   30.9090 C.2   152  PHE152      0.2264
     33  O         90.6920   71.8460   31.2680 O.2   152  PHE152     -0.2867
     34  CB        93.2430   69.8670   31.9940 C.3   152  PHE152      0.0534
     35  CG        93.7600   71.2130   32.3930 C.ar  152  PHE152     -0.0203
     36  CD1       93.5810   71.6830   33.6860 C.ar  152  PHE152     -0.0042
     37  CD2       94.4110   72.0220   31.4690 C.ar  152  PHE152     -0.0042
     38  CE1       94.0450   72.9430   34.0580 C.ar  152  PHE152     -0.0003
     39  CE2       94.8790   73.2840   31.8320 C.ar  152  PHE152     -0.0003
     40  CZ        94.6940   73.7420   33.1270 C.ar  152  PHE152     -0.0000
     41  N         90.0110   81.2340   35.0110 N.3   164  THR164     -0.1218
     42  CA        91.0760   80.2460   35.0710 C.3   164  THR164      0.1862
     43  C         91.6190   80.0770   33.6540 C.2   164  THR164      0.2287
     44  O         92.8260   79.9790   33.4460 O.2   164  THR164     -0.2866
     45  CB        90.5550   78.8880   35.5760 C.3   164  THR164      0.1770
     46  OG1       89.8750   79.0670   36.8270 O.3   164  THR164     -0.2211
     47  CG2       91.7120   77.9230   35.7770 C.3   164  THR164      0.0375
     48  N         93.8800   82.9470   32.8270 N.3   167  MET167     -0.1230
     49  CA        95.1230   82.7350   33.5420 C.3   167  MET167      0.1702
     50  C         96.0130   81.7700   32.7710 C.2   167  MET167      0.2592
     51  O         97.1860   82.0460   32.5390 O.2   167  MET167     -0.2718
     52  CB        94.8260   82.1690   34.9320 C.3   167  MET167      0.0401
     53  CG        96.0390   81.6320   35.6480 C.3   167  MET167      0.0596
     54  SD        95.5840   80.8280   37.1710 S.3   167  MET167     -0.1393
     55  CE        95.0060   79.2610   36.5560 C.3   167  MET167      0.0692
     56  N         95.4430   80.6370   32.3770 N.am  168  PHE168     -0.1976
     57  CA        96.1850   79.6350   31.6330 C.3   168  PHE168      0.1639
     58  C         96.6900   80.2140   30.3250 C.2   168  PHE168      0.2290
     59  O         97.8150   79.9370   29.9040 O.2   168  PHE168     -0.2864
     60  CB        95.3070   78.4150   31.3590 C.3   168  PHE168      0.0560
     61  CG        95.9930   77.3410   30.5640 C.ar  168  PHE168     -0.0200
     62  CD1       95.8740   77.2970   29.1770 C.ar  168  PHE168     -0.0042
     63  CD2       96.7680   76.3730   31.2000 C.ar  168  PHE168     -0.0042
     64  CE1       96.5170   76.3010   28.4370 C.ar  168  PHE168     -0.0003
     65  CE2       97.4160   75.3740   30.4710 C.ar  168  PHE168     -0.0003
     66  CZ        97.2890   75.3390   29.0880 C.ar  168  PHE168     -0.0000
     67  N         99.5680   82.3560   30.8870 N.3   171  ALA171     -0.1231
     68  CA       100.7620   81.5490   31.1110 C.3   171  ALA171      0.1694
     69  C        101.4160   81.1480   29.7920 C.2   171  ALA171      0.2591
     70  O        102.6390   81.2160   29.6580 O.2   171  ALA171     -0.2718
     71  CB       100.4150   80.3090   31.9160 C.3   171  ALA171      0.0304
     72  N        100.6010   80.7260   28.8250 N.am  172  MET172     -0.1979
     73  CA       101.1050   80.3190   27.5120 C.3   172  MET172      0.1605
     74  C        101.6940   81.5090   26.7650 C.2   172  MET172      0.2287
     75  O        102.8180   81.4410   26.2720 O.2   172  MET172     -0.2864
     76  CB        99.9900   79.7050   26.6560 C.3   172  MET172      0.0413
     77  CG        99.3350   78.4630   27.2390 C.3   172  MET172      0.0598
     78  SD        98.1930   77.6920   26.0550 S.3   172  MET172     -0.1393
     79  CE        96.7940   78.8560   26.0840 C.3   172  MET172      0.0692
     80  N        104.8190   82.1860   28.0870 N.3   175  ASP175     -0.1239
     81  CA       105.7790   81.1580   27.7230 C.3   175  ASP175      0.1674
     82  C        106.2190   81.3780   26.2750 C.2   175  ASP175      0.2266
     83  O        107.3490   81.0680   25.9010 O.2   175  ASP175     -0.2867
     84  CB       105.1480   79.7730   27.8650 C.3   175  ASP175      0.1410
     85  CG       106.1740   78.6640   27.8290 C.2   175  ASP175      0.3668
     86  OD1      105.8130   77.5240   27.4580 O.co2 175  ASP175     -0.2456
     87  OD2      107.3430   78.9300   28.1830 O.co2 175  ASP175     -0.2456
     88  N        108.6410   73.0270   19.7790 N.3   258  TRP258     -0.1241
     89  CA       107.5400   72.3350   20.4610 C.3   258  TRP258      0.1605
     90  C        106.7220   71.5090   19.4870 C.2   258  TRP258      0.2264
     91  O        105.5050   71.4160   19.6310 O.2   258  TRP258     -0.2867
     92  CB       106.5730   73.3120   21.1480 C.3   258  TRP258      0.0550
     93  CG       107.1740   74.3180   22.0950 C.ar  258  TRP258      0.0003
     94  CD1      108.4160   74.2800   22.6680 C.ar  258  TRP258      0.0946
     95  CD2      106.5460   75.5170   22.5800 C.ar  258  TRP258      0.0152
     96  NE1      108.6020   75.3830   23.4740 N.ar  258  TRP258     -0.2442
     97  CE2      107.4710   76.1570   23.4400 C.ar  258  TRP258      0.0810
     98  CE3      105.2920   76.1140   22.3710 C.ar  258  TRP258      0.0012
     99  CZ2      107.1820   77.3660   24.0920 C.ar  258  TRP258      0.0191
    100  CZ3      105.0040   77.3200   23.0210 C.ar  258  TRP258      0.0001
    101  CH2      105.9470   77.9300   23.8700 C.ar  258  TRP258      0.0015
    102  N        108.5940   68.6360   36.2340 N.3   311  TYR311     -0.1241
    103  CA       107.7430   69.1350   35.1650 C.3   311  TYR311      0.1605
    104  C        107.1700   67.9740   34.3580 C.2   311  TYR311      0.2264
    105  O        106.0100   67.9900   33.9520 O.2   311  TYR311     -0.2867
    106  CB       108.5400   70.0710   34.2610 C.3   311  TYR311      0.0534
    107  CG       107.7120   70.7150   33.1850 C.ar  311  TYR311     -0.0201
    108  CD1      107.5740   70.1140   31.9320 C.ar  311  TYR311     -0.0009
    109  CD2      107.0450   71.9150   33.4240 C.ar  311  TYR311     -0.0009
    110  CE1      106.7900   70.6920   30.9440 C.ar  311  TYR311      0.0417
    111  CE2      106.2570   72.5030   32.4430 C.ar  311  TYR311      0.0417
    112  CZ       106.1340   71.8860   31.2070 C.ar  311  TYR311      0.1957
    113  OH       105.3500   72.4560   30.2380 O.3   311  TYR311     -0.2866
    114  N        104.2310   66.6940   35.9300 N.3   314  VAL314     -0.1231
    115  CA       103.0950   67.5860   35.8030 C.3   314  VAL314      0.1692
    116  C        102.4240   67.2770   34.4670 C.2   314  VAL314      0.2591
    117  O        101.1960   67.1870   34.3820 O.2   314  VAL314     -0.2718
    118  CB       103.5510   69.0730   35.8630 C.3   314  VAL314      0.0266
    119  CG1      102.3860   70.0010   35.5490 C.3   314  VAL314      0.0020
    120  CG2      104.1070   69.3840   37.2560 C.3   314  VAL314      0.0020
    121  N        103.2430   67.0940   33.4340 N.am  315  MET315     -0.1979
    122  CA       102.7420   66.7760   32.1030 C.3   315  MET315      0.1605
    123  C        102.0020   65.4560   32.1750 C.2   315  MET315      0.2287
    124  O        100.9470   65.2670   31.5570 O.2   315  MET315     -0.2864
    125  CB       103.8960   66.6590   31.1030 C.3   315  MET315      0.0413
    126  CG       104.6170   67.9700   30.8330 C.3   315  MET315      0.0598
    127  SD       103.5170   69.2300   30.1310 S.3   315  MET315     -0.1393
    128  CE       103.0480   70.1380   31.6160 C.3   315  MET315      0.0692
    129  N         98.6260   65.8020   34.3550 N.3   318  MET318     -0.1230
    130  CA        97.6170   66.6760   33.7730 C.3   318  MET318      0.1702
    131  C         97.2070   66.3980   32.3380 C.2   318  MET318      0.2592
    132  O         96.0560   66.6310   31.9660 O.2   318  MET318     -0.2718
    133  CB        98.0760   68.1190   33.8830 C.3   318  MET318      0.0401
    134  CG        98.3350   68.5120   35.3130 C.3   318  MET318      0.0596
    135  SD        97.5920   70.0770   35.6930 S.3   318  MET318     -0.1393
    136  CE        98.8030   71.1500   34.9600 C.3   318  MET318      0.0692
    137  N         98.1340   65.8880   31.5370 N.am  319  PHE319     -0.1976
    138  CA        97.8470   65.6430   30.1370 C.3   319  PHE319      0.1639
    139  C         98.2290   64.2350   29.7030 C.2   319  PHE319      0.2290
    140  O         97.9130   63.8060   28.5900 O.2   319  PHE319     -0.2864
    141  CB        98.6130   66.6680   29.2940 C.3   319  PHE319      0.0560
    142  CG        98.4780   68.0810   29.7920 C.ar  319  PHE319     -0.0200
    143  CD1       97.2450   68.7250   29.7740 C.ar  319  PHE319     -0.0042
    144  CD2       99.5820   68.7660   30.2880 C.ar  319  PHE319     -0.0042
    145  CE1       97.1130   70.0370   30.2430 C.ar  319  PHE319     -0.0003
    146  CE2       99.4640   70.0800   30.7610 C.ar  319  PHE319     -0.0003
    147  CZ        98.2240   70.7160   30.7370 C.ar  319  PHE319     -0.0000
    148  N        114.2790   74.1310   29.8730 N.3   350  LYS350     -0.1245
    149  CA       113.9790   73.6320   28.5310 C.3   350  LYS350      0.1561
    150  C        115.2980   73.4890   27.7730 C.2   350  LYS350      0.2260
    151  O        116.3620   73.8230   28.2890 O.2   350  LYS350     -0.2867
    152  CB       113.0830   74.6060   27.7580 C.3   350  LYS350      0.0271
    153  CG       111.9050   75.1880   28.5180 C.3   350  LYS350      0.0035
    154  CD       110.7870   74.2050   28.7080 C.3   350  LYS350      0.0206
    155  CE       109.6340   74.8560   29.4650 C.3   350  LYS350      0.1093
    156  NZ       109.0830   76.0600   28.7700 N.3   350  LYS350     -0.1314
@<TRIPOS>BOND
     1    90    91    2
     2    90    89    1
     3    88    89    1
     4    89    92    1
     5    92    93    1
     6    93    95   ar
     7    93    94   ar
     8    98    95   ar
     9    98   100   ar
    10    95    97   ar
    11    94    96   ar
    12   100   101   ar
    13    97    96   ar
    14    97    99   ar
    15   101    99   ar
    16    83    82    2
    17    78    79    1
    18    78    77    1
    19    75    74    2
    20    82    81    1
    21    76    77    1
    22    76    73    1
    23    74    73    1
    24    86    85   ar
    25    73    72    1
    26    81    84    1
    27    81    80    1
    28   152   153    1
    29   152   149    1
    30   150   151    2
    31   150   149    1
    32    85    84    1
    33    85    87   ar
    34    64    66   ar
    35    64    62   ar
    36   153   154    1
    37   149   148    1
    38   140   139    2
    39   154   155    1
    40   156   155    1
    41    72    69   am
    42    66    65   ar
    43    62    61   ar
    44   141   142    1
    45   141   138    1
    46    70    69    2
    47   139   138    1
    48   143   142   ar
    49   143   145   ar
    50    69    68    1
    51   142   144   ar
    52    59    58    2
    53   127   126    1
    54   127   128    1
    55   138   137    1
    56   113   112    1
    57   145   147   ar
    58   144   146   ar
    59    58    57    1
    60    65    63   ar
    61    61    63   ar
    62    61    60    1
    63   147   146   ar
    64   126   125    1
    65    67    68    1
    66    32    33    2
    67    32    31    1
    68   110   112   ar
    69   110   108   ar
    70   125   122    1
    71    68    71    1
    72   112   111   ar
    73    60    57    1
    74    37    39   ar
    75    37    35   ar
    76   137   131   am
    77   124   123    2
    78    30    31    1
    79    57    56    1
    80    39    40   ar
    81   108   107   ar
    82    31    34    1
    83   132   131    2
    84    34    35    1
    85     8     6    1
    86   122   123    1
    87   122   121    1
    88   131   130    1
    89    56    50   am
    90    35    36   ar
    91   111   109   ar
    92    51    50    2
    93    50    49    1
    94    48    49    1
    95     6     5    1
    96    40    38   ar
    97   107   109   ar
    98   107   106    1
    99   121   116   am
   100    44    43    2
   101    49    52    1
   102    43    42    1
   103    36    38   ar
   104   130   133    1
   105   130   129    1
   106   133   134    1
   107   105   104    2
   108   106   103    1
   109   104   103    1
   110   117   116    2
   111     5     7    1
   112     5     2    1
   113   116   115    1
   114    52    53    1
   115   136   135    1
   116    41    42    1
   117     1     2    1
   118    42    45    1
   119     2     3    1
   120   103   102    1
   121   134   135    1
   122   119   118    1
   123    45    47    1
   124    45    46    1
   125    53    54    1
   126   115   118    1
   127   115   114    1
   128   118   120    1
   129     3     4    2
   130    55    54    1
   131    10    11    1
   132    10     9    1
   133    11    13   am
   134    11    12    2
   135    13    14    1
   136    23    22    1
   137    29    28    1
   138    17    14    1
   139    14    15    1
   140    22    19    1
   141    21    20    2
   142    20    19    1
   143    20    24   am
   144    28    25    1
   145    25    24    1
   146    25    26    1
   147    15    16    2
   148    19    18    1
   149    27    26    2
