@<TRIPOS>MOLECULE
tmp/1zgeA00.pdb
 136 136 0 0 0
SMALL
GASTEIGER

@<TRIPOS>ATOM
      1  N         29.6350    1.0250   10.2910 N.3     2  TRP2       -0.1241
      2  CA        28.9600    0.1060   11.2060 C.3     2  TRP2        0.1605
      3  C         27.9160   -0.7200   10.4700 C.2     2  TRP2        0.2264
      4  O         27.3150   -0.2970    9.4790 O.2     2  TRP2       -0.2867
      5  CB        28.2710    0.8600   12.3410 C.3     2  TRP2        0.0550
      6  CG        27.0940    1.7070   11.9970 C.ar    2  TRP2        0.0003
      7  CD1       27.0030    3.0100   11.6370 C.ar    2  TRP2        0.0946
      8  CD2       25.7330    1.2280   11.9940 C.ar    2  TRP2        0.0152
      9  NE1       25.6900    3.3600   11.4110 N.ar    2  TRP2       -0.2442
     10  CE2       24.8820    2.2840   11.6250 C.ar    2  TRP2        0.0810
     11  CE3       25.1970   -0.0270   12.2770 C.ar    2  TRP2        0.0012
     12  CZ2       23.4900    2.1090   11.5350 C.ar    2  TRP2        0.0191
     13  CZ3       23.8280   -0.1830   12.1870 C.ar    2  TRP2        0.0001
     14  CH2       22.9860    0.8750   11.8250 C.ar    2  TRP2        0.0015
     15  N          7.0820   10.0360   12.5760 N.3    88  ILE88      -0.1231
     16  CA         7.9910   10.3800   11.4980 C.3    88  ILE88       0.1692
     17  C          8.3000    9.2020   10.5830 C.2    88  ILE88       0.2591
     18  O          8.3580    9.4050    9.3630 O.2    88  ILE88      -0.2718
     19  CB         9.3050   11.0300   11.9900 C.3    88  ILE88       0.0266
     20  CG1       10.2830   11.3320   10.8550 C.3    88  ILE88       0.0019
     21  CG2       10.0110   10.2580   13.0860 C.3    88  ILE88       0.0020
     22  CD1       11.5600   12.0470   11.2670 C.3    88  ILE88       0.0001
     23  N          8.4430    7.9740   11.0600 N.am   89  GLN89      -0.1979
     24  CA         8.7180    6.8240   10.2410 C.3    89  GLN89       0.1601
     25  C          8.4420    5.5410   11.0220 C.2    89  GLN89       0.2287
     26  O          8.3700    5.6010   12.2460 O.2    89  GLN89      -0.2864
     27  CB        10.1850    6.7780    9.7780 C.3    89  GLN89       0.0394
     28  CG        11.1610    6.8780   10.9520 C.3    89  GLN89       0.0908
     29  CD        12.0090    5.6160   11.0180 C.2    89  GLN89       0.2608
     30  OE1       11.4440    4.5320   11.1140 O.2    89  GLN89      -0.2717
     31  NE2       13.3090    5.7410   10.9450 N.am   89  GLN89      -0.0878
     32  N          9.9640    1.2960   10.8570 N.3    91  HIS91      -0.1241
     33  CA        10.8370    0.3010   10.2620 C.3    91  HIS91       0.1621
     34  C         10.7580   -0.9740   11.0970 C.2    91  HIS91       0.2264
     35  O         10.1130   -0.9790   12.1460 O.2    91  HIS91      -0.2867
     36  CB        12.2650    0.8390   10.1820 C.3    91  HIS91       0.0745
     37  CG        12.8140    1.1130   11.5470 C.ar   91  HIS91       0.0817
     38  ND1       12.5600    2.3180   12.1840 N.ar   91  HIS91      -0.2268
     39  CD2       13.5420    0.3520   12.4090 C.ar   91  HIS91       0.1154
     40  CE1       13.1610    2.2740   13.3760 C.ar   91  HIS91       0.1986
     41  NE2       13.7320    1.1000   13.5350 N.ar   91  HIS91      -0.2212
     42  N         13.1440   -4.6890   12.3700 N.3    93  HIS93      -0.1241
     43  CA        14.3240   -5.4880   12.5850 C.3    93  HIS93       0.1621
     44  C         13.8910   -6.9510   12.4760 C.2    93  HIS93       0.2264
     45  O         12.8240   -7.2840   13.0060 O.2    93  HIS93      -0.2867
     46  CB        14.9590   -5.2270   13.9500 C.3    93  HIS93       0.0745
     47  CG        15.2470   -3.7780   14.1830 C.ar   93  HIS93       0.0817
     48  ND1       16.4790   -3.2130   13.9720 N.ar   93  HIS93      -0.2268
     49  CD2       14.4450   -2.7540   14.5570 C.ar   93  HIS93       0.1154
     50  CE1       16.4380   -1.9190   14.2400 C.ar   93  HIS93       0.1986
     51  NE2       15.1970   -1.6030   14.6000 N.ar   93  HIS93      -0.2212
     52  N          9.1740   -0.8700   14.7890 N.3   116  HIS116     -0.1241
     53  CA         9.4520    0.3500   15.5110 C.3   116  HIS116      0.1621
     54  C          8.7300    1.5200   14.8240 C.2   116  HIS116      0.2264
     55  O          9.0700    1.8820   13.7060 O.2   116  HIS116     -0.2867
     56  CB        10.9360    0.6710   15.5910 C.3   116  HIS116      0.0745
     57  CG        11.6540   -0.2920   16.4950 C.ar  116  HIS116      0.0817
     58  ND1       13.0080   -0.4710   16.5060 N.ar  116  HIS116     -0.2268
     59  CD2       11.1380   -1.1250   17.4070 C.ar  116  HIS116      0.1154
     60  CE1       13.2840   -1.3830   17.4020 C.ar  116  HIS116      0.1986
     61  NE2       12.1870   -1.8150   17.9930 N.ar  116  HIS116     -0.2212
     62  N          8.3380    5.3460   15.1320 N.3   118  VAL118     -0.1245
     63  CA         9.1820    6.3850   15.7240 C.3   118  VAL118      0.1561
     64  C          8.4470    7.7310   15.7470 C.2   118  VAL118      0.2260
     65  O          7.9060    8.1570   14.7270 O.2   118  VAL118     -0.2867
     66  CB        10.5080    6.5540   14.9670 C.3   118  VAL118      0.0252
     67  CG1       11.4750    7.4970   15.6950 C.3   118  VAL118      0.0019
     68  CG2       11.2070    5.2320   14.7270 C.3   118  VAL118      0.0019
     69  N         12.9390   16.9820   14.7410 N.3   127  PHE127     -0.1241
     70  CA        13.5430   15.7180   15.1260 C.3   127  PHE127      0.1605
     71  C         14.9500   15.9690   15.6510 C.2   127  PHE127      0.2264
     72  O         15.3840   15.3690   16.6520 O.2   127  PHE127     -0.2867
     73  CB        13.5350   14.7370   13.9500 C.3   127  PHE127      0.0534
     74  CG        14.1550   13.3860   14.2910 C.ar  127  PHE127     -0.0203
     75  CD1       13.3550   12.3610   14.7640 C.ar  127  PHE127     -0.0042
     76  CD2       15.5040   13.1300   14.1360 C.ar  127  PHE127     -0.0042
     77  CE1       13.9150   11.1390   15.0830 C.ar  127  PHE127     -0.0003
     78  CE2       16.0880   11.9200   14.4670 C.ar  127  PHE127     -0.0003
     79  CZ        15.2670   10.9210   14.9460 C.ar  127  PHE127     -0.0000
     80  N          9.3130    5.5680   20.9120 N.3   139  VAL139     -0.1245
     81  CA         9.2300    4.4830   19.9390 C.3   139  VAL139      0.1561
     82  C          8.2290    3.4510   20.5020 C.2   139  VAL139      0.2260
     83  O          8.3800    3.0090   21.6270 O.2   139  VAL139     -0.2867
     84  CB        10.5740    3.8430   19.6110 C.3   139  VAL139      0.0252
     85  CG1       10.4160    2.8030   18.5120 C.3   139  VAL139      0.0019
     86  CG2       11.5550    4.9240   19.1620 C.3   139  VAL139      0.0019
     87  N         18.2190    4.9460   21.0440 N.3   194  LEU194     -0.1231
     88  CA        18.1700    4.3500   19.7070 C.3   194  LEU194      0.1693
     89  C         18.9240    3.0160   19.7430 C.2   194  LEU194      0.2593
     90  O         19.8930    2.8990   20.5280 O.2   194  LEU194     -0.2718
     91  CB        18.8050    5.2670   18.6700 C.3   194  LEU194      0.0284
     92  CG        18.2590    6.6890   18.6270 C.3   194  LEU194      0.0019
     93  CD1       19.0700    7.6170   17.7560 C.3   194  LEU194      0.0001
     94  CD2       16.8100    6.6540   18.1330 C.3   194  LEU194      0.0001
     95  N         18.5150    2.0430   18.9470 N.am  195  THR195     -0.1939
     96  CA        19.1240    0.7020   18.9920 C.3   195  THR195      0.2028
     97  C         20.1530    0.5160   17.8930 C.2   195  THR195      0.2643
     98  O         20.7490   -0.5640   17.7790 O.2   195  THR195     -0.2714
     99  CB        18.1040   -0.4450   18.8540 C.3   195  THR195      0.1808
    100  OG1       17.4760   -0.3580   17.5770 O.3   195  THR195     -0.2208
    101  CG2       16.9870   -0.3480   19.8790 C.3   195  THR195      0.0379
    102  N         20.3800    1.5620   17.1090 N.am  196  THR196     -0.1937
    103  CA        21.4700    1.5820   16.1410 C.3   196  THR196      0.2013
    104  C         22.3310    2.8270   16.3960 C.2   196  THR196      0.2484
    105  O         21.7890    3.7600   17.0270 O.2   196  THR196     -0.2729
    106  CB        21.0150    1.5960   14.6760 C.3   196  THR196      0.1807
    107  OG1       20.4230    2.8750   14.3360 O.3   196  THR196     -0.2208
    108  CG2       19.9380    0.5660   14.4030 C.3   196  THR196      0.0379
    109  N         23.5800    2.8590   15.9290 N.am  197  PRO197     -0.2715
    110  CA        24.3060    4.1340   15.9560 C.3   197  PRO197      0.1521
    111  C         23.4580    5.2530   15.3960 C.2   197  PRO197      0.2440
    112  O         22.7200    5.0270   14.4110 O.2   197  PRO197     -0.2731
    113  CB        25.5010    3.8270   15.0280 C.3   197  PRO197      0.0310
    114  CG        25.7860    2.3850   15.3100 C.3   197  PRO197      0.0237
    115  CD        24.3880    1.7850   15.3350 C.3   197  PRO197      0.0939
    116  N         23.5030    6.4510   15.9670 N.am  198  PRO198     -0.2727
    117  CA        24.3870    6.8250   17.0740 C.3   198  PRO198      0.1402
    118  C         23.9440    6.5270   18.5050 C.2   198  PRO198      0.2269
    119  O         24.5330    7.0530   19.4770 O.2   198  PRO198     -0.2865
    120  CB        24.4450    8.3610   16.8920 C.3   198  PRO198      0.0296
    121  CG        23.0980    8.7100   16.3540 C.3   198  PRO198      0.0237
    122  CD        22.7250    7.5940   15.4410 C.3   198  PRO198      0.0939
    123  N         10.6490    4.1360   25.5370 N.3   205  TRP205     -0.1241
    124  CA        10.2140    2.9160   24.8530 C.3   205  TRP205      0.1605
    125  C          8.8530    2.4730   25.3670 C.2   205  TRP205      0.2264
    126  O          8.6800    2.4220   26.5930 O.2   205  TRP205     -0.2867
    127  CB        11.2320    1.7680   25.0420 C.3   205  TRP205      0.0550
    128  CG        12.3450    1.9480   24.0470 C.ar  205  TRP205      0.0003
    129  CD1       13.5580    2.5440   24.2230 C.ar  205  TRP205      0.0946
    130  CD2       12.3160    1.5120   22.6810 C.ar  205  TRP205      0.0152
    131  NE1       14.2790    2.5070   23.0580 N.ar  205  TRP205     -0.2442
    132  CE2       13.5380    1.8740   22.0910 C.ar  205  TRP205      0.0810
    133  CE3       11.3650    0.8440   21.9080 C.ar  205  TRP205      0.0012
    134  CZ2       13.8150    1.5880   20.7620 C.ar  205  TRP205      0.0191
    135  CZ3       11.6570    0.5670   20.5930 C.ar  205  TRP205      0.0001
    136  CH2       12.8830    0.9390   20.0300 C.ar  205  TRP205      0.0015
@<TRIPOS>BOND
     1    18    17    2
     2     4     3    2
     3    27    24    1
     4    27    28    1
     5    36    33    1
     6    36    37    1
     7    24    25    1
     8    24    23    1
     9    33    32    1
    10    33    34    1
    11     1     2    1
    12     3     2    1
    13    17    23   am
    14    17    16    1
    15    20    22    1
    16    20    19    1
    17    31    29   am
    18    28    29    1
    19    29    30    2
    20    25    26    2
    21    34    35    2
    22     2     5    1
    23     9    10   ar
    24     9     7   ar
    25    16    19    1
    26    16    15    1
    27    12    10   ar
    28    12    14   ar
    29    37    38   ar
    30    37    39   ar
    31    10     8   ar
    32     7     6   ar
    33    14    13   ar
    34    19    21    1
    35     8     6   ar
    36     8    11   ar
    37     6     5    1
    38    38    40   ar
    39    13    11   ar
    40    42    43    1
    41    39    41   ar
    42    44    43    1
    43    44    45    2
    44    43    46    1
    45    40    41   ar
    46    55    54    2
    47    46    47    1
    48    73    74    1
    49    73    70    1
    50    48    47   ar
    51    48    50   ar
    52    76    74   ar
    53    76    78   ar
    54    47    49   ar
    55    50    51   ar
    56    74    75   ar
    57   107   106    1
    58   108   106    1
    59   112   111    2
    60    78    79   ar
    61    49    51   ar
    62   106   103    1
    63    68    66    1
    64    65    64    2
    65    69    70    1
    66    75    77   ar
    67    52    53    1
    68    54    53    1
    69    79    77   ar
    70    66    67    1
    71    66    63    1
    72   113   114    1
    73   113   110    1
    74    70    71    1
    75    62    63    1
    76   114   115    1
    77   115   109    1
    78   111   110    1
    79   111   116   am
    80   122   116    1
    81   122   121    1
    82    53    56    1
    83    56    57    1
    84    71    72    2
    85    63    64    1
    86   109   110    1
    87   109   104   am
    88   116   117    1
    89   103   104    1
    90   103   102    1
    91   121   120    1
    92   104   105    2
    93    57    58   ar
    94    57    59   ar
    95    58    60   ar
    96   120   117    1
    97   117   118    1
    98   102    97   am
    99    60    61   ar
   100    59    61   ar
   101   100    99    1
   102    93    92    1
   103    98    97    2
   104    97    96    1
   105    94    92    1
   106   118   119    2
   107    85    84    1
   108    92    91    1
   109    91    88    1
   110    99    96    1
   111    99   101    1
   112    95    96    1
   113    95    89   am
   114    86    84    1
   115    84    81    1
   116    88    89    1
   117    88    87    1
   118    89    90    2
   119    81    82    1
   120    81    80    1
   121   136   135   ar
   122   136   134   ar
   123    82    83    2
   124   135   133   ar
   125   134   132   ar
   126   133   130   ar
   127   132   130   ar
   128   132   131   ar
   129   130   128   ar
   130   131   129   ar
   131   128   129   ar
   132   128   127    1
   133   124   127    1
   134   124   125    1
   135   124   123    1
   136   125   126    2
