@<TRIPOS>MOLECULE
tmp/1zgfA00.pdb
 178 172 0 0 0
SMALL
GASTEIGER

@<TRIPOS>ATOM
      1  N         29.4620    1.0950   10.5080 N.3     2  TRP2       -0.1241
      2  CA        28.7190    0.2270   11.4150 C.3     2  TRP2        0.1605
      3  C         27.6900   -0.5870   10.6480 C.2     2  TRP2        0.2264
      4  O         27.0960   -0.1600    9.6630 O.2     2  TRP2       -0.2867
      5  CB        27.9760    0.9700   12.5160 C.3     2  TRP2        0.0550
      6  CG        26.7190    1.6820   12.1620 C.ar    2  TRP2        0.0003
      7  CD1       26.6370    2.9890   11.7410 C.ar    2  TRP2        0.0946
      8  CD2       25.3720    1.1900   12.1810 C.ar    2  TRP2        0.0152
      9  NE1       25.3380    3.3240   11.5070 N.ar    2  TRP2       -0.2442
     10  CE2       24.5380    2.2410   11.7650 C.ar    2  TRP2        0.0810
     11  CE3       24.7750   -0.0370   12.5060 C.ar    2  TRP2        0.0012
     12  CZ2       23.1610    2.0920   11.6730 C.ar    2  TRP2        0.0191
     13  CZ3       23.3950   -0.1720   12.4080 C.ar    2  TRP2        0.0001
     14  CH2       22.5900    0.8930   11.9910 C.ar    2  TRP2        0.0015
     15  N         12.1950    3.7640    2.0910 N.3    57  LEU57      -0.1245
     16  CA        13.6060    3.8800    1.7380 C.3    57  LEU57       0.1561
     17  C         14.4250    2.7240    2.2760 C.2    57  LEU57       0.2260
     18  O         14.3030    2.3870    3.4580 O.2    57  LEU57      -0.2867
     19  CB        14.1830    5.1860    2.2910 C.3    57  LEU57       0.0270
     20  CG        15.7050    5.3420    2.3480 C.3    57  LEU57       0.0019
     21  CD1       16.2960    5.5040    0.9650 C.3    57  LEU57       0.0001
     22  CD2       16.1020    6.5360    3.2230 C.3    57  LEU57       0.0001
     23  N         17.7250    1.9500    3.7750 N.3    59  ASN59      -0.1240
     24  CA        18.7880    2.8310    4.2840 C.3    59  ASN59       0.1653
     25  C         20.0970    2.0970    4.5070 C.2    59  ASN59       0.2266
     26  O         21.0080    2.6690    5.1110 O.2    59  ASN59      -0.2867
     27  CB        18.4060    3.5190    5.5930 C.3    59  ASN59       0.1155
     28  CG        18.0010    2.5350    6.6720 C.2    59  ASN59       0.2627
     29  OD1       18.4350    1.3830    6.7040 O.2    59  ASN59      -0.2716
     30  ND2       17.1670    3.0230    7.5830 N.am   59  ASN59      -0.0877
     31  N         20.4920   -0.6090    6.2580 N.3    61  HIS61      -0.1241
     32  CA        20.3880   -1.6300    7.3080 C.3    61  HIS61       0.1621
     33  C         18.9540   -2.1140    7.5210 C.2    61  HIS61       0.2264
     34  O         18.7830   -3.2480    7.9850 O.2    61  HIS61      -0.2867
     35  CB        21.0240   -1.1140    8.5900 C.3    61  HIS61       0.0745
     36  CG        20.3880    0.1130    9.1490 C.ar   61  HIS61       0.0817
     37  ND1       20.7840    1.3940    8.8330 N.ar   61  HIS61      -0.2268
     38  CD2       19.3490    0.2390   10.0110 C.ar   61  HIS61       0.1154
     39  CE1       20.0220    2.2570    9.4820 C.ar   61  HIS61       0.1986
     40  NE2       19.1430    1.5800   10.2020 N.ar   61  HIS61      -0.2212
     41  N         12.8410    2.2830    6.0240 N.3    64  ASN64      -0.1240
     42  CA        11.9770    3.1860    6.7610 C.3    64  ASN64       0.1653
     43  C         10.7490    3.5200    5.9190 C.2    64  ASN64       0.2266
     44  O         10.8860    3.8390    4.7380 O.2    64  ASN64      -0.2867
     45  CB        12.6610    4.5040    7.1370 C.3    64  ASN64       0.1155
     46  CG        13.8000    4.2730    8.1160 C.2    64  ASN64       0.2627
     47  OD1       13.7390    3.3370    8.9050 O.2    64  ASN64      -0.2716
     48  ND2       14.8150    5.1130    8.0270 N.am   64  ASN64      -0.0877
     49  N          7.2360    9.9900   12.8930 N.3    88  ILE88      -0.1231
     50  CA         8.0850   10.4170   11.7790 C.3    88  ILE88       0.1692
     51  C          8.4060    9.2470   10.8580 C.2    88  ILE88       0.2591
     52  O          8.6010    9.4470    9.6660 O.2    88  ILE88      -0.2718
     53  CB         9.3820   11.0570   12.2900 C.3    88  ILE88       0.0266
     54  CG1       10.3650   11.3910   11.1520 C.3    88  ILE88       0.0019
     55  CG2       10.0750   10.2210   13.3460 C.3    88  ILE88       0.0020
     56  CD1       11.4460   12.3560   11.6300 C.3    88  ILE88       0.0001
     57  N          8.4710    8.0120   11.3610 N.am   89  GLN89      -0.1979
     58  CA         8.8280    6.8790   10.5080 C.3    89  GLN89       0.1601
     59  C          8.5910    5.5670   11.2570 C.2    89  GLN89       0.2287
     60  O          8.5190    5.5910   12.4830 O.2    89  GLN89      -0.2864
     61  CB        10.2790    6.9210   10.0490 C.3    89  GLN89       0.0394
     62  CG        11.3420    7.0300   11.1400 C.3    89  GLN89       0.0908
     63  CD        12.1810    5.7860   11.3290 C.2    89  GLN89       0.2608
     64  OE1       11.6680    4.6720   11.1380 O.2    89  GLN89      -0.2717
     65  NE2       13.4530    5.8990   11.7260 N.am   89  GLN89      -0.0878
     66  N         10.0130    1.2890   10.9890 N.3    91  HIS91      -0.1241
     67  CA        10.9200    0.3240   10.3970 C.3    91  HIS91       0.1621
     68  C         10.7820   -0.9760   11.1920 C.2    91  HIS91       0.2264
     69  O         10.0900   -0.9810   12.2240 O.2    91  HIS91      -0.2867
     70  CB        12.3560    0.8280   10.4270 C.3    91  HIS91       0.0745
     71  CG        12.8050    1.0920   11.8370 C.ar   91  HIS91       0.0817
     72  ND1       12.6510    2.3260   12.4460 N.ar   91  HIS91      -0.2268
     73  CD2       13.3690    0.2930   12.7750 C.ar   91  HIS91       0.1154
     74  CE1       13.1240    2.2610   13.6690 C.ar   91  HIS91       0.1986
     75  NE2       13.5610    1.0290   13.9090 N.ar   91  HIS91      -0.2212
     76  N         13.0930   -4.6830   12.4850 N.3    93  HIS93      -0.1241
     77  CA        14.2620   -5.5110   12.7010 C.3    93  HIS93       0.1621
     78  C         13.8090   -6.9720   12.5880 C.2    93  HIS93       0.2264
     79  O         12.7630   -7.3930   13.1030 O.2    93  HIS93      -0.2867
     80  CB        14.9280   -5.2410   14.0520 C.3    93  HIS93       0.0745
     81  CG        15.1790   -3.7930   14.3390 C.ar   93  HIS93       0.0817
     82  ND1       16.4310   -3.2180   14.2100 N.ar   93  HIS93      -0.2268
     83  CD2       14.3510   -2.8000   14.7500 C.ar   93  HIS93       0.1154
     84  CE1       16.3400   -1.9330   14.5300 C.ar   93  HIS93       0.1986
     85  NE2       15.0920   -1.6460   14.8610 N.ar   93  HIS93      -0.2212
     86  N          9.0780   -0.8470   14.8610 N.3   116  HIS116     -0.1241
     87  CA         9.3420    0.3480   15.6450 C.3   116  HIS116      0.1621
     88  C          8.6660    1.5360   14.9600 C.2   116  HIS116      0.2264
     89  O          9.0130    1.7980   13.8030 O.2   116  HIS116     -0.2867
     90  CB        10.8480    0.5990   15.7970 C.3   116  HIS116      0.0745
     91  CG        11.5190   -0.3830   16.7050 C.ar  116  HIS116      0.0817
     92  ND1       12.8530   -0.6730   16.6650 N.ar  116  HIS116     -0.2268
     93  CD2       10.9950   -1.1650   17.6780 C.ar  116  HIS116      0.1154
     94  CE1       13.1410   -1.5790   17.5660 C.ar  116  HIS116      0.1986
     95  NE2       12.0300   -1.9000   18.2170 N.ar  116  HIS116     -0.2212
     96  N          8.4950    5.3390   15.3090 N.3   118  VAL118     -0.1245
     97  CA         9.3170    6.3350   15.9750 C.3   118  VAL118      0.1561
     98  C          8.5830    7.6730   15.9850 C.2   118  VAL118      0.2260
     99  O          8.0650    8.1400   14.9600 O.2   118  VAL118     -0.2867
    100  CB        10.6760    6.4960   15.2810 C.3   118  VAL118      0.0252
    101  CG1       11.5500    7.5120   16.0050 C.3   118  VAL118      0.0019
    102  CG2       11.4030    5.1660   15.1730 C.3   118  VAL118      0.0019
    103  N         13.1030   16.7840   14.9650 N.3   127  PHE127     -0.1241
    104  CA        13.6810   15.5260   15.4080 C.3   127  PHE127      0.1605
    105  C         15.0930   15.7540   15.9150 C.2   127  PHE127      0.2264
    106  O         15.5270   15.2060   16.9210 O.2   127  PHE127     -0.2867
    107  CB        13.6530   14.4930   14.2780 C.3   127  PHE127      0.0534
    108  CG        14.2810   13.1620   14.6530 C.ar  127  PHE127     -0.0203
    109  CD1       13.5400   12.1820   15.2840 C.ar  127  PHE127     -0.0042
    110  CD2       15.6120   12.8820   14.3820 C.ar  127  PHE127     -0.0042
    111  CE1       14.1080   10.9670   15.6310 C.ar  127  PHE127     -0.0003
    112  CE2       16.1820   11.6760   14.7200 C.ar  127  PHE127     -0.0003
    113  CZ        15.4360   10.6980   15.3610 C.ar  127  PHE127     -0.0000
    114  N         12.0800   11.4140   22.3740 N.3   137  LEU137     -0.1245
    115  CA        11.4920   10.4360   21.4700 C.3   137  LEU137      0.1561
    116  C         10.6560    9.4210   22.2360 C.2   137  LEU137      0.2260
    117  O         10.9220    9.0580   23.3750 O.2   137  LEU137     -0.2867
    118  CB        12.5690    9.6530   20.7130 C.3   137  LEU137      0.0270
    119  CG        13.5900   10.4170   19.8810 C.3   137  LEU137      0.0019
    120  CD1       14.5150    9.4480   19.1610 C.3   137  LEU137      0.0001
    121  CD2       12.8960   11.3180   18.8870 C.3   137  LEU137      0.0001
    122  N          9.2220    5.5470   21.1840 N.3   139  VAL139     -0.1245
    123  CA         9.0580    4.4930   20.1810 C.3   139  VAL139      0.1561
    124  C          8.0260    3.4700   20.6240 C.2   139  VAL139      0.2260
    125  O          8.1050    2.9390   21.7440 O.2   139  VAL139     -0.2867
    126  CB        10.3880    3.7800   19.8940 C.3   139  VAL139      0.0252
    127  CG1       10.1730    2.7750   18.7690 C.3   139  VAL139      0.0019
    128  CG2       11.4730    4.7830   19.5310 C.3   139  VAL139      0.0019
    129  N         18.0520    4.8850   21.2970 N.3   194  LEU194     -0.1231
    130  CA        18.0700    4.3300   19.9440 C.3   194  LEU194      0.1693
    131  C         18.7880    2.9780   20.0110 C.2   194  LEU194      0.2593
    132  O         19.7870    2.8610   20.7540 O.2   194  LEU194     -0.2718
    133  CB        18.7940    5.2240   18.9610 C.3   194  LEU194      0.0284
    134  CG        18.0270    6.3390   18.2660 C.3   194  LEU194      0.0019
    135  CD1       17.5400    7.3850   19.2340 C.3   194  LEU194      0.0001
    136  CD2       18.9640    6.9560   17.2230 C.3   194  LEU194      0.0001
    137  N         18.3120    1.9940   19.2450 N.am  195  THR195     -0.1939
    138  CA        19.0410    0.7260   19.2030 C.3   195  THR195      0.2028
    139  C         19.9950    0.6360   18.0180 C.2   195  THR195      0.2643
    140  O         20.6280   -0.4050   17.8350 O.2   195  THR195     -0.2714
    141  CB        18.0880   -0.4910   19.1190 C.3   195  THR195      0.1808
    142  OG1       17.4840   -0.3710   17.8250 O.3   195  THR195     -0.2208
    143  CG2       16.9970   -0.4620   20.1700 C.3   195  THR195      0.0379
    144  N         20.1150    1.6820   17.2390 N.am  196  THR196     -0.1937
    145  CA        21.0730    1.8470   16.1590 C.3   196  THR196      0.2013
    146  C         21.9840    3.0290   16.4710 C.2   196  THR196      0.2484
    147  O         21.5260    3.9600   17.1310 O.2   196  THR196     -0.2729
    148  CB        20.3700    2.1030   14.8220 C.3   196  THR196      0.1807
    149  OG1       19.4400    3.1730   14.9910 O.3   196  THR196     -0.2208
    150  CG2       19.5510    0.8830   14.4310 C.3   196  THR196      0.0379
    151  N         23.2290    2.9800   16.0180 N.am  197  PRO197     -0.2726
    152  CA        24.0560    4.1930   16.1250 C.3   197  PRO197      0.1402
    153  C         23.2950    5.3810   15.5540 C.2   197  PRO197      0.2269
    154  O         22.6190    5.2460   14.5240 O.2   197  PRO197     -0.2865
    155  CB        25.2940    3.8280   15.3070 C.3   197  PRO197      0.0296
    156  CG        25.4000    2.3370   15.4960 C.3   197  PRO197      0.0237
    157  CD        23.9650    1.8690   15.4100 C.3   197  PRO197      0.0939
    158  N         15.0050    8.0010   24.3980 N.3   203  VAL203     -0.1245
    159  CA        13.7620    7.3080   24.0950 C.3   203  VAL203      0.1561
    160  C         12.9770    6.8380   25.3050 C.2   203  VAL203      0.2260
    161  O         13.5280    6.2730   26.2350 O.2   203  VAL203     -0.2867
    162  CB        14.0260    6.0360   23.2440 C.3   203  VAL203      0.0252
    163  CG1       12.7140    5.3830   22.8600 C.3   203  VAL203      0.0019
    164  CG2       14.8500    6.3410   22.0060 C.3   203  VAL203      0.0019
    165  N         10.5040    4.0320   25.7950 N.3   205  TRP205     -0.1241
    166  CA        10.0520    2.8450   25.0620 C.3   205  TRP205      0.1605
    167  C          8.6840    2.4110   25.5660 C.2   205  TRP205      0.2264
    168  O          8.4180    2.3420   26.7710 O.2   205  TRP205     -0.2867
    169  CB        11.0720    1.7100   25.2170 C.3   205  TRP205      0.0550
    170  CG        12.2020    1.8650   24.2440 C.ar  205  TRP205      0.0003
    171  CD1       13.4320    2.4170   24.4070 C.ar  205  TRP205      0.0946
    172  CD2       12.1320    1.4270   22.8710 C.ar  205  TRP205      0.0152
    173  NE1       14.1340    2.3440   23.2250 N.ar  205  TRP205     -0.2442
    174  CE2       13.3570    1.7400   22.2780 C.ar  205  TRP205      0.0810
    175  CE3       11.1370    0.8010   22.1320 C.ar  205  TRP205      0.0012
    176  CZ2       13.6250    1.4390   20.9370 C.ar  205  TRP205      0.0191
    177  CZ3       11.3950    0.5010   20.8110 C.ar  205  TRP205      0.0001
    178  CH2       12.6310    0.8230   20.2270 C.ar  205  TRP205      0.0015
@<TRIPOS>BOND
     1    21    20    1
     2    16    15    1
     3    16    17    1
     4    16    19    1
     5    17    18    2
     6    19    20    1
     7    20    22    1
     8    23    24    1
     9    24    25    1
    10    24    27    1
    11    25    26    2
    12    44    43    2
    13    27    28    1
    14    43    42    1
    15    41    42    1
    16    31    32    1
    17    28    29    2
    18    28    30   am
    19    42    45    1
    20    45    46    1
    21    32    33    1
    22    32    35    1
    23    33    34    2
    24    48    46   am
    25    46    47    2
    26    35    36    1
    27    37    36   ar
    28    37    39   ar
    29    36    38   ar
    30    39    40   ar
    31     4     3    2
    32    52    51    2
    33    38    40   ar
    34    61    58    1
    35    61    62    1
    36    67    70    1
    37    67    66    1
    38    67    68    1
    39    70    71    1
    40    58    59    1
    41    58    57    1
    42     1     2    1
    43     3     2    1
    44    51    57   am
    45    51    50    1
    46    64    63    2
    47    62    63    1
    48    54    56    1
    49    54    53    1
    50    68    69    2
    51    59    60    2
    52    63    65   am
    53     2     5    1
    54     9     7   ar
    55     9    10   ar
    56    12    10   ar
    57    12    14   ar
    58     7     6   ar
    59    10     8   ar
    60    50    53    1
    61    50    49    1
    62    71    72   ar
    63    71    73   ar
    64    14    13   ar
    65     6     8   ar
    66     6     5    1
    67     8    11   ar
    68    53    55    1
    69    13    11   ar
    70    72    74   ar
    71    76    77    1
    72    78    77    1
    73    78    79    2
    74    77    80    1
    75    73    75   ar
    76    74    75   ar
    77    89    88    2
    78    80    81    1
    79    82    81   ar
    80    82    84   ar
    81   107   108    1
    82   107   104    1
    83    81    83   ar
    84   110   108   ar
    85   110   112   ar
    86   150   148    1
    87   154   153    2
    88    84    85   ar
    89   108   109   ar
    90   112   113   ar
    91    83    85   ar
    92   148   149    1
    93   148   145    1
    94    86    87    1
    95    88    87    1
    96    99    98    2
    97   103   104    1
    98   102   100    1
    99   100    97    1
   100   100   101    1
   101   109   111   ar
   102   155   156    1
   103   155   152    1
   104    96    97    1
   105   113   111   ar
   106   104   105    1
   107   157   156    1
   108   157   151    1
   109   153   152    1
   110    87    90    1
   111    90    91    1
   112   105   106    2
   113    97    98    1
   114   151   152    1
   115   151   146   am
   116   145   146    1
   117   145   144    1
   118   146   147    2
   119    92    91   ar
   120    92    94   ar
   121    91    93   ar
   122   136   134    1
   123   144   139   am
   124    94    95   ar
   125    93    95   ar
   126   142   141    1
   127   140   139    2
   128   139   138    1
   129   134   133    1
   130   134   135    1
   131   127   126    1
   132   121   119    1
   133   133   130    1
   134   141   138    1
   135   141   143    1
   136   120   119    1
   137   138   137    1
   138   137   131   am
   139   128   126    1
   140   119   118    1
   141   126   123    1
   142   130   131    1
   143   130   129    1
   144   131   132    2
   145   123   124    1
   146   123   122    1
   147   178   177   ar
   148   178   176   ar
   149   124   125    2
   150   118   115    1
   151   177   175   ar
   152   176   174   ar
   153   115   116    1
   154   115   114    1
   155   164   162    1
   156   175   172   ar
   157   116   117    2
   158   174   172   ar
   159   174   173   ar
   160   163   162    1
   161   172   170   ar
   162   173   171   ar
   163   162   159    1
   164   159   158    1
   165   159   160    1
   166   170   171   ar
   167   170   169    1
   168   166   169    1
   169   166   167    1
   170   166   165    1
   171   160   161    2
   172   167   168    2
