@<TRIPOS>MOLECULE
tmp/1zgiA01.pdb
 203 203 0 0 0
SMALL
GASTEIGER

@<TRIPOS>ATOM
      1  N         22.4210   -6.9760   18.5210 N.3    69  HIS69      -0.1241
      2  CA        22.3780   -8.3530   18.0510 C.3    69  HIS69       0.1621
      3  C         21.6110   -8.5130   16.7370 C.2    69  HIS69       0.2264
      4  O         21.6030   -9.5880   16.1360 O.2    69  HIS69      -0.2867
      5  CB        21.8140   -9.2890   19.1290 C.3    69  HIS69       0.0745
      6  CG        20.3230   -9.3580   19.1600 C.ar   69  HIS69       0.0817
      7  ND1       19.5600   -8.5980   20.0270 N.ar   69  HIS69      -0.2268
      8  CD2       19.4530  -10.1220   18.4640 C.ar   69  HIS69       0.1154
      9  CE1       18.2860   -8.9000   19.8620 C.ar   69  HIS69       0.1986
     10  NE2       18.1880   -9.8180   18.9190 N.ar   69  HIS69      -0.2212
     11  N         25.8800  -11.0820   15.5700 N.3    73  TYR73      -0.1241
     12  CA        25.6410  -12.1860   16.4810 C.3    73  TYR73       0.1605
     13  C         26.3080  -13.4480   15.9260 C.2    73  TYR73       0.2264
     14  O         25.6610  -14.2780   15.2820 O.2    73  TYR73      -0.2867
     15  CB        24.1440  -12.4190   16.6680 C.3    73  TYR73       0.0534
     16  CG        23.8370  -13.3050   17.8480 C.ar   73  TYR73      -0.0201
     17  CD1       24.2160  -12.9350   19.1350 C.ar   73  TYR73      -0.0009
     18  CD2       23.1840  -14.5210   17.6800 C.ar   73  TYR73      -0.0009
     19  CE1       23.9580  -13.7520   20.2310 C.ar   73  TYR73       0.0417
     20  CE2       22.9200  -15.3500   18.7690 C.ar   73  TYR73       0.0417
     21  CZ        23.3100  -14.9570   20.0410 C.ar   73  TYR73       0.1957
     22  OH        23.0590  -15.7760   21.1200 O.3    73  TYR73      -0.2866
     23  N         25.1280  -17.2700   15.2510 N.3    76  TRP76      -0.1241
     24  CA        24.3170  -17.6210   14.0880 C.3    76  TRP76       0.1605
     25  C         24.9190  -16.9890   12.8340 C.2    76  TRP76       0.2264
     26  O         24.2080  -16.6490   11.8940 O.2    76  TRP76      -0.2867
     27  CB        22.8720  -17.1370   14.2610 C.3    76  TRP76       0.0550
     28  CG        22.1750  -17.6680   15.4930 C.ar   76  TRP76       0.0003
     29  CD1       22.5070  -18.7820   16.2140 C.ar   76  TRP76       0.0946
     30  CD2       21.0160  -17.1090   16.1330 C.ar   76  TRP76       0.0152
     31  NE1       21.6280  -18.9510   17.2630 N.ar   76  TRP76      -0.2442
     32  CE2       20.7020  -17.9350   17.2340 C.ar   76  TRP76       0.0810
     33  CE3       20.2130  -15.9880   15.8790 C.ar   76  TRP76       0.0012
     34  CZ2       19.6160  -17.6780   18.0850 C.ar   76  TRP76       0.0191
     35  CZ3       19.1300  -15.7320   16.7260 C.ar   76  TRP76       0.0001
     36  CH2       18.8450  -16.5730   17.8150 C.ar   76  TRP76       0.0015
     37  N         28.0140  -10.3290   23.2410 N.3   118  TRP118     -0.1241
     38  CA        27.2370  -11.3410   22.5330 C.3   118  TRP118      0.1605
     39  C         27.5670  -12.7410   23.0210 C.2   118  TRP118      0.2264
     40  O         26.7660  -13.6660   22.8630 O.2   118  TRP118     -0.2867
     41  CB        27.4840  -11.2610   21.0250 C.3   118  TRP118      0.0550
     42  CG        28.9250  -11.1800   20.6370 C.ar  118  TRP118      0.0003
     43  CD1       29.6590  -10.0410   20.4490 C.ar  118  TRP118      0.0946
     44  CD2       29.8010  -12.2770   20.3390 C.ar  118  TRP118      0.0152
     45  NE1       30.9350  -10.3610   20.0430 N.ar  118  TRP118     -0.2442
     46  CE2       31.0510  -11.7240   19.9690 C.ar  118  TRP118      0.0810
     47  CE3       29.6490  -13.6690   20.3490 C.ar  118  TRP118      0.0012
     48  CZ2       32.1490  -12.5240   19.6040 C.ar  118  TRP118      0.0191
     49  CZ3       30.7500  -14.4680   19.9830 C.ar  118  TRP118      0.0001
     50  CH2       31.9790  -13.8850   19.6190 C.ar  118  TRP118      0.0015
     51  N         27.8590  -13.9100   26.1460 N.3   120  GLU120     -0.1231
     52  CA        27.1240  -14.3990   27.3110 C.3   120  GLU120      0.1699
     53  C         25.6520  -14.0280   27.5320 C.2   120  GLU120      0.2592
     54  O         24.7790  -14.8940   27.4620 O.2   120  GLU120     -0.2718
     55  CB        27.9180  -14.0270   28.5670 C.3   120  GLU120      0.0402
     56  CG        27.3470  -14.5380   29.8730 C.3   120  GLU120      0.1161
     57  CD        28.0270  -13.9130   31.0780 C.2   120  GLU120      0.3649
     58  OE1       28.8810  -13.0150   30.8830 O.co2 120  GLU120     -0.2457
     59  OE2       27.6990  -14.3160   32.2180 O.co2 120  GLU120     -0.2457
     60  N         25.3740  -12.7570   27.8100 N.am  121  ASN121     -0.1960
     61  CA        23.9990  -12.3390   28.0980 C.3   121  ASN121      0.1819
     62  C         23.4680  -11.1390   27.3090 C.2   121  ASN121      0.2621
     63  O         22.4650  -10.5330   27.7020 O.2   121  ASN121     -0.2715
     64  CB        23.8900  -12.0320   29.5880 C.3   121  ASN121      0.1195
     65  CG        24.9500  -11.0480   30.0490 C.2   121  ASN121      0.2630
     66  OD1       25.7260  -10.5310   29.2360 O.2   121  ASN121     -0.2716
     67  ND2       24.9900  -10.7800   31.3490 N.am  121  ASN121     -0.0877
     68  N         24.1330  -10.7890   26.2130 N.am  122  LEU122     -0.1977
     69  CA        23.7120   -9.6500   25.4040 C.3   122  LEU122      0.1596
     70  C         23.7020   -8.3540   26.2290 C.2   122  LEU122      0.2287
     71  O         22.7810   -7.5350   26.1310 O.2   122  LEU122     -0.2864
     72  CB        22.3140   -9.8870   24.8020 C.3   122  LEU122      0.0297
     73  CG        22.1190  -11.0590   23.8340 C.3   122  LEU122      0.0022
     74  CD1       20.7520  -10.9300   23.1520 C.3   122  LEU122      0.0001
     75  CD2       23.2260  -11.0660   22.7860 C.3   122  LEU122      0.0001
     76  N          5.0800  -17.6880   19.5180 N.3   172  GLU172     -0.1245
     77  CA         6.3890  -18.3140   19.5450 C.3   172  GLU172      0.1567
     78  C          6.4440  -19.4860   18.5610 C.2   172  GLU172      0.2260
     79  O          7.4550  -19.6040   17.8320 O.2   172  GLU172     -0.2867
     80  CB         6.7300  -18.8160   20.9440 C.3   172  GLU172      0.0388
     81  CG         8.1160  -19.4560   20.9570 C.3   172  GLU172      0.1160
     82  CD         8.5200  -20.0030   22.3090 C.2   172  GLU172      0.3649
     83  OE1        9.6020  -20.6240   22.3990 O.co2 172  GLU172     -0.2457
     84  OE2        7.7590  -19.8140   23.2820 O.co2 172  GLU172     -0.2457
     85  N         20.1990  -16.8290   33.3420 N.3   197  ILE197     -0.1245
     86  CA        21.0650  -15.8240   32.7370 C.3   197  ILE197      0.1561
     87  C         21.4510  -14.7180   33.7140 C.2   197  ILE197      0.2260
     88  O         20.6280  -14.2440   34.4960 O.2   197  ILE197     -0.2867
     89  CB        20.3750  -15.1770   31.5020 C.3   197  ILE197      0.0252
     90  CG1       20.0850  -16.2510   30.4420 C.3   197  ILE197      0.0019
     91  CG2       21.2600  -14.0910   30.9140 C.3   197  ILE197      0.0019
     92  CD1       21.3390  -16.9440   29.9090 C.3   197  ILE197      0.0001
     93  N          3.9830   -9.8300   25.1720 N.3   217  ASP217     -0.1225
     94  CA         5.4340   -9.9180   25.1180 C.3   217  ASP217      0.1805
     95  C          5.9050   -9.6310   23.6970 C.2   217  ASP217      0.2598
     96  O          5.1060   -9.6130   22.7540 O.2   217  ASP217     -0.2718
     97  CB         5.8680  -11.3340   25.5340 C.3   217  ASP217      0.1424
     98  CG         7.3650  -11.4650   25.7390 C.2   217  ASP217      0.3668
     99  OD1        7.8320  -12.6150   25.9420 O.co2 217  ASP217     -0.2456
    100  OD2        8.0760  -10.4340   25.7080 O.co2 217  ASP217     -0.2456
    101  N          7.2020   -9.3800   23.5500 N.am  218  ALA218     -0.1966
    102  CA         7.7730   -9.1470   22.2390 C.3   218  ALA218      0.1728
    103  C          8.0610  -10.5430   21.6990 C.2   218  ALA218      0.2616
    104  O          7.8420  -11.5330   22.3960 O.2   218  ALA218     -0.2715
    105  CB         9.0640   -8.3550   22.3570 C.3   218  ALA218      0.0334
    106  N          8.5490  -10.6260   20.4710 N.am  219  CYS219     -0.1954
    107  CA         8.8590  -11.9190   19.8720 C.3   219  CYS219      0.1843
    108  C          9.7800  -11.7240   18.6700 C.2   219  CYS219      0.2625
    109  O         10.1820  -10.6030   18.3730 O.2   219  CYS219     -0.2714
    110  CB         7.5650  -12.6140   19.4410 C.3   219  CYS219      0.1000
    111  SG         7.9030  -14.4830   19.4150 S.3   219  CYS219     -0.0756
    112  N         10.1200  -12.8170   17.9890 N.am  220  GLU220     -0.1977
    113  CA        11.0160  -12.7670   16.8290 C.3   220  GLU220      0.1602
    114  C         10.6130  -11.6400   15.8700 C.2   220  GLU220      0.2287
    115  O          9.4320  -11.4540   15.5860 O.2   220  GLU220     -0.2864
    116  CB        10.9660  -14.1170   16.0860 C.3   220  GLU220      0.0415
    117  CG        12.2550  -14.9410   15.9960 C.3   220  GLU220      0.1163
    118  CD        13.2300  -14.4110   14.9660 C.2   220  GLU220      0.3649
    119  OE1       14.3260  -15.0030   14.8220 O.co2 220  GLU220     -0.2457
    120  OE2       12.9020  -13.4040   14.3000 O.co2 220  GLU220     -0.2457
    121  N         12.8560   -7.6190   17.9740 N.3   223  SER223     -0.1217
    122  CA        14.1350   -7.1680   18.5330 C.3   223  SER223      0.1889
    123  C         14.5470   -5.8360   17.9530 C.2   223  SER223      0.2288
    124  O         14.2510   -5.5480   16.8000 O.2   223  SER223     -0.2866
    125  CB        15.2520   -8.1790   18.2490 C.3   223  SER223      0.2089
    126  OG        15.0930   -9.3380   19.0340 O.3   223  SER223     -0.2183
    127  N         14.0510   -3.6000   22.8700 N.3   243  VAL243     -0.1231
    128  CA        13.7500   -5.0280   22.9440 C.3   243  VAL243      0.1692
    129  C         15.0720   -5.7700   22.7020 C.2   243  VAL243      0.2593
    130  O         15.7000   -5.6040   21.6590 O.2   243  VAL243     -0.2718
    131  CB        12.7060   -5.4400   21.8740 C.3   243  VAL243      0.0266
    132  CG1       12.3800   -6.9430   21.9880 C.3   243  VAL243      0.0020
    133  CG2       11.4440   -4.6020   22.0470 C.3   243  VAL243      0.0020
    134  N         15.5020   -6.5640   23.6750 N.am  244  SER244     -0.1938
    135  CA        16.7650   -7.2730   23.5470 C.3   244  SER244      0.2055
    136  C         16.6380   -8.7850   23.4490 C.2   244  SER244      0.2643
    137  O         17.0480   -9.3800   22.4570 O.2   244  SER244     -0.2714
    138  CB        17.6930   -6.9190   24.7170 C.3   244  SER244      0.2130
    139  OG        19.0000   -7.4310   24.4940 O.3   244  SER244     -0.2179
    140  N         16.0830   -9.4190   24.4790 N.am  245  TRP245     -0.1959
    141  CA        15.9520  -10.8680   24.4360 C.3   245  TRP245      0.1771
    142  C         14.9340  -11.4210   25.3990 C.2   245  TRP245      0.2620
    143  O         14.3970  -10.7150   26.2500 O.2   245  TRP245     -0.2715
    144  CB        17.3070  -11.5490   24.7050 C.3   245  TRP245      0.0590
    145  CG        17.9090  -11.2120   26.0450 C.ar  245  TRP245      0.0006
    146  CD1       18.7160  -10.1500   26.3370 C.ar  245  TRP245      0.0946
    147  CD2       17.7300  -11.9310   27.2770 C.ar  245  TRP245      0.0152
    148  NE1       19.0500  -10.1590   27.6710 N.ar  245  TRP245     -0.2442
    149  CE2       18.4590  -11.2430   28.2720 C.ar  245  TRP245      0.0810
    150  CE3       17.0250  -13.0870   27.6360 C.ar  245  TRP245      0.0012
    151  CZ2       18.5060  -11.6740   29.6070 C.ar  245  TRP245      0.0191
    152  CZ3       17.0710  -13.5170   28.9630 C.ar  245  TRP245      0.0001
    153  CH2       17.8070  -12.8090   29.9300 C.ar  245  TRP245      0.0015
    154  N         14.6810  -12.7100   25.2390 N.am  246  GLY246     -0.1940
    155  CA        13.7370  -13.4160   26.0790 C.3   246  GLY246      0.2014
    156  C         13.8430  -14.9020   25.8030 C.2   246  GLY246      0.2639
    157  O         14.3940  -15.3150   24.7810 O.2   246  GLY246     -0.2714
    158  N         13.3350  -15.7100   26.7230 N.am  247  GLU247     -0.1963
    159  CA        13.3450  -17.1640   26.5660 C.3   247  GLU247      0.1733
    160  C         11.9520  -17.5010   26.0880 C.2   247  GLU247      0.2617
    161  O         11.0160  -17.5800   26.8870 O.2   247  GLU247     -0.2715
    162  CB        13.6790  -17.8190   27.9030 C.3   247  GLU247      0.0429
    163  CG        15.0420  -17.2730   28.3630 C.3   247  GLU247      0.1163
    164  CD        15.4910  -17.7330   29.7420 C.2   247  GLU247      0.3649
    165  OE1       16.5960  -17.3480   30.1710 O.co2 247  GLU247     -0.2457
    166  OE2       14.7440  -18.4810   30.4080 O.co2 247  GLU247     -0.2457
    167  N         11.8040  -17.6870   24.7830 N.am  248  GLY248     -0.1940
    168  CA        10.4900  -17.9730   24.2350 C.3   248  GLY248      0.2014
    169  C          9.6910  -16.6750   24.1630 C.2   248  GLY248      0.2642
    170  O         10.2700  -15.5860   24.2160 O.2   248  GLY248     -0.2714
    171  N          8.3710  -16.7760   24.0510 N.am  249  CYS249     -0.1925
    172  CA         7.5290  -15.5880   23.9810 C.3   249  CYS249      0.1884
    173  C          6.2540  -15.7730   24.7870 C.2   249  CYS249      0.2338
    174  O          5.5640  -16.7850   24.6640 O.2   249  CYS249     -0.2860
    175  CB         7.1490  -15.2830   22.5280 C.2   249  CYS249      0.0448
    176  SG         8.4740  -14.9980   21.0510 S.3   249  CYS249     -0.0571
    177  N         10.3360  -10.3710   29.2190 N.3   256  GLY256     -0.1210
    178  CA        11.1640   -9.8600   28.1530 C.3   256  GLY256      0.1956
    179  C         12.2270   -8.9710   28.7630 C.2   256  GLY256      0.2612
    180  O         11.9640   -8.2910   29.7500 O.2   256  GLY256     -0.2717
    181  N         13.4290   -8.9780   28.1930 N.am  257  PHE257     -0.1962
    182  CA        14.5010   -8.1420   28.7100 C.3   257  PHE257      0.1771
    183  C         14.8450   -7.0330   27.7430 C.2   257  PHE257      0.2619
    184  O         14.9350   -7.2440   26.5310 O.2   257  PHE257     -0.2715
    185  CB        15.7330   -8.9840   29.0380 C.3   257  PHE257      0.0574
    186  CG        15.5820   -9.7920   30.2930 C.ar  257  PHE257     -0.0200
    187  CD1       14.7700  -10.9190   30.3170 C.ar  257  PHE257     -0.0042
    188  CD2       16.1930   -9.3810   31.4770 C.ar  257  PHE257     -0.0042
    189  CE1       14.5590  -11.6290   31.5060 C.ar  257  PHE257     -0.0003
    190  CE2       15.9910  -10.0820   32.6720 C.ar  257  PHE257     -0.0003
    191  CZ        15.1720  -11.2100   32.6850 C.ar  257  PHE257     -0.0000
    192  N         15.0580   -5.8410   28.2970 N.am  258  TYR258     -0.1974
    193  CA        15.3460   -4.6670   27.4910 C.3   258  TYR258      0.1639
    194  C         16.6490   -3.9500   27.8210 C.2   258  TYR258      0.2290
    195  O         17.0580   -3.9050   28.9700 O.2   258  TYR258     -0.2864
    196  CB        14.1940   -3.6720   27.6350 C.3   258  TYR258      0.0560
    197  CG        12.8540   -4.2560   27.2590 C.ar  258  TYR258     -0.0198
    198  CD1       12.2150   -5.1840   28.0840 C.ar  258  TYR258     -0.0009
    199  CD2       12.2470   -3.9180   26.0550 C.ar  258  TYR258     -0.0009
    200  CE1       11.0080   -5.7600   27.7040 C.ar  258  TYR258      0.0417
    201  CE2       11.0500   -4.4860   25.6680 C.ar  258  TYR258      0.0417
    202  CZ        10.4350   -5.4070   26.4910 C.ar  258  TYR258      0.1957
    203  OH         9.2600   -5.9820   26.0720 O.3   258  TYR258     -0.2866
@<TRIPOS>BOND
     1    26    25    2
     2    25    24    1
     3    24    27    1
     4    24    23    1
     5    27    28    1
     6   120   118   ar
     7   119   118   ar
     8   118   117    1
     9    14    13    2
    10    28    30   ar
    11    28    29   ar
    12    11    12    1
    13   115   114    2
    14   114   113    1
    15    33    30   ar
    16    33    35   ar
    17    13    12    1
    18   117   116    1
    19   116   113    1
    20    30    32   ar
    21     4     3    2
    22    29    31   ar
    23    12    15    1
    24    15    16    1
    25    35    36   ar
    26     3     2    1
    27   124   123    2
    28   113   112    1
    29    32    31   ar
    30    32    34   ar
    31    18    16   ar
    32    18    20   ar
    33    36    34   ar
    34    79    78    2
    35    16    17   ar
    36   123   122    1
    37   121   122    1
    38   112   108   am
    39     2     1    1
    40     2     5    1
    41   125   122    1
    42   125   126    1
    43   109   108    2
    44     8    10   ar
    45     8     6   ar
    46    78    77    1
    47   108   107    1
    48    20    21   ar
    49    10     9   ar
    50     5     6    1
    51    17    19   ar
    52     6     7   ar
    53   111   110    1
    54   111   176    1
    55   110   107    1
    56    76    77    1
    57    77    80    1
    58    48    50   ar
    59    48    46   ar
    60    50    49   ar
    61     9     7   ar
    62   107   106    1
    63    46    45   ar
    64    46    44   ar
    65    49    47   ar
    66    21    19   ar
    67    21    22    1
    68    45    43   ar
    69    44    47   ar
    70    44    42   ar
    71    43    42   ar
    72   106   103   am
    73    42    41    1
    74    80    81    1
    75    81    82    1
    76    41    38    1
    77   176   175    2
    78   130   129    2
    79   103   102    1
    80   103   104    2
    81   131   132    1
    82   131   133    1
    83   131   128    1
    84   102   105    1
    85   102   101    1
    86    82    83   ar
    87    82    84   ar
    88   137   136    2
    89   175   172    1
    90    38    39    1
    91    38    37    1
    92   129   128    1
    93   129   134   am
    94    96    95    2
    95    75    73    1
    96    40    39    2
    97   127   128    1
    98    74    73    1
    99   136   135    1
   100   136   140   am
   101   135   134    1
   102   135   138    1
   103   101    95   am
   104    95    94    1
   105    73    72    1
   106   172   171    1
   107   172   173    1
   108   171   169   am
   109   169   170    2
   110   169   168    1
   111   168   167    1
   112   141   140    1
   113   141   144    1
   114   141   142    1
   115   139   138    1
   116   174   173    2
   117   144   145    1
   118   157   156    2
   119   167   160   am
   120    72    69    1
   121    94    93    1
   122    94    97    1
   123   154   142   am
   124   154   155    1
   125   142   143    2
   126    69    68    1
   127    69    70    1
   128    97    98    1
   129   201   199   ar
   130   201   202   ar
   131   100    98   ar
   132    98    99   ar
   133   156   155    1
   134   156   158   am
   135   145   146   ar
   136   145   147   ar
   137   199   197   ar
   138   203   202    1
   139   160   159    1
   140   160   161    2
   141    71    70    2
   142    51    52    1
   143    68    62   am
   144   146   148   ar
   145   202   200   ar
   146   184   183    2
   147   159   158    1
   148   159   162    1
   149   197   196    1
   150   197   198   ar
   151   147   150   ar
   152   147   149   ar
   153    62    63    2
   154    62    61    1
   155    52    53    1
   156    52    55    1
   157    54    53    2
   158   193   196    1
   159   193   194    1
   160   193   192    1
   161    53    60   am
   162   150   152   ar
   163   148   149   ar
   164   200   198   ar
   165   183   192   am
   166   183   182    1
   167    60    61    1
   168   194   195    2
   169   162   163    1
   170    61    64    1
   171   178   179    1
   172   178   177    1
   173   181   182    1
   174   181   179   am
   175   149   151   ar
   176   163   164    1
   177    55    56    1
   178   182   185    1
   179   179   180    2
   180   152   153   ar
   181   185   186    1
   182    66    65    2
   183    64    65    1
   184   151   153   ar
   185   164   165   ar
   186   164   166   ar
   187    56    57    1
   188    92    90    1
   189    65    67   am
   190   186   187   ar
   191   186   188   ar
   192   187   189   ar
   193    90    89    1
   194    58    57   ar
   195    91    89    1
   196    57    59   ar
   197   188   190   ar
   198    89    86    1
   199   189   191   ar
   200   190   191   ar
   201    86    85    1
   202    86    87    1
   203    87    88    2
