@<TRIPOS>MOLECULE
tmp/1zgjA00.pdb
 156 149 0 0 0
SMALL
GASTEIGER

@<TRIPOS>ATOM
      1  N         32.0170   82.9370   34.7980 N.3   112  ILE112     -0.1245
      2  CA        32.3650   81.5260   34.7840 C.3   112  ILE112      0.1561
      3  C         32.4390   81.0260   36.2230 C.2   112  ILE112      0.2260
      4  O         32.0790   79.8860   36.5220 O.2   112  ILE112     -0.2867
      5  CB        33.7140   81.2920   34.0810 C.3   112  ILE112      0.0252
      6  CG1       33.5790   81.6080   32.5850 C.3   112  ILE112      0.0019
      7  CG2       34.1530   79.8600   34.2780 C.3   112  ILE112      0.0019
      8  CD1       34.9080   81.6430   31.8200 C.3   112  ILE112      0.0001
      9  N         28.7420   80.6630   37.4520 N.3   115  GLY115     -0.1210
     10  CA        28.0660   79.5220   36.8700 C.3   115  GLY115      0.1956
     11  C         28.6000   78.1930   37.3530 C.2   115  GLY115      0.2611
     12  O         27.8390   77.2950   37.6900 O.2   115  GLY115     -0.2717
     13  N         29.9190   78.0650   37.3900 N.am  116  ALA116     -0.1979
     14  CA        30.5500   76.8290   37.8160 C.3   116  ALA116      0.1597
     15  C         30.1810   76.4750   39.2290 C.2   116  ALA116      0.2287
     16  O         30.1570   75.3000   39.5820 O.2   116  ALA116     -0.2864
     17  CB        32.0470   76.9450   37.7040 C.3   116  ALA116      0.0319
     18  N         22.6200   75.0100   40.4660 N.3   120  SER120     -0.1202
     19  CA        22.2720   74.0670   39.4130 C.3   120  SER120      0.2020
     20  C         23.4540   73.1790   39.0380 C.2   120  SER120      0.2619
     21  O         23.2880   72.1740   38.3430 O.2   120  SER120     -0.2717
     22  CB        21.7530   74.8060   38.1740 C.3   120  SER120      0.2103
     23  OG        22.7670   75.6010   37.5730 O.3   120  SER120     -0.2182
     24  N         24.6470   73.5460   39.5020 N.am  121  SER121     -0.1951
     25  CA        25.8480   72.7570   39.2240 C.3   121  SER121      0.1924
     26  C         26.2330   71.9220   40.4280 C.2   121  SER121      0.2314
     27  O         26.8820   70.8890   40.2930 O.2   121  SER121     -0.2863
     28  CB        27.0480   73.6610   38.8950 C.3   121  SER121      0.2116
     29  OG        26.8580   74.3970   37.7030 O.3   121  SER121     -0.2180
     30  N         20.3110   69.0770   31.4800 N.3   149  PHE149     -0.1241
     31  CA        20.7290   70.4230   31.8190 C.3   149  PHE149      0.1605
     32  C         20.1790   71.4200   30.8150 C.2   149  PHE149      0.2264
     33  O         19.6850   72.4810   31.1850 O.2   149  PHE149     -0.2867
     34  CB        22.2490   70.5200   31.8480 C.3   149  PHE149      0.0534
     35  CG        22.7500   71.8690   32.2540 C.ar  149  PHE149     -0.0203
     36  CD1       22.5460   72.3400   33.5480 C.ar  149  PHE149     -0.0042
     37  CD2       23.4040   72.6860   31.3370 C.ar  149  PHE149     -0.0042
     38  CE1       22.9890   73.6100   33.9230 C.ar  149  PHE149     -0.0003
     39  CE2       23.8480   73.9570   31.7020 C.ar  149  PHE149     -0.0003
     40  CZ        23.6390   74.4170   32.9940 C.ar  149  PHE149     -0.0000
     41  N         18.8500   81.7940   35.0510 N.3   161  THR161     -0.1218
     42  CA        19.9000   80.7890   35.0570 C.3   161  THR161      0.1862
     43  C         20.4400   80.6670   33.6410 C.2   161  THR161      0.2287
     44  O         21.6530   80.6810   33.4220 O.2   161  THR161     -0.2866
     45  CB        19.3850   79.4070   35.4990 C.3   161  THR161      0.1770
     46  OG1       18.6600   79.5310   36.7240 O.3   161  THR161     -0.2211
     47  CG2       20.5510   78.4660   35.7380 C.3   161  THR161      0.0375
     48  N         22.6600   83.6260   32.9590 N.3   164  MET164     -0.1230
     49  CA        23.9640   83.5620   33.6110 C.3   164  MET164      0.1702
     50  C         24.8710   82.5780   32.8800 C.2   164  MET164      0.2592
     51  O         26.0300   82.8740   32.5950 O.2   164  MET164     -0.2718
     52  CB        23.7960   83.1060   35.0570 C.3   164  MET164      0.0401
     53  CG        25.0450   82.4930   35.6480 C.3   164  MET164      0.0596
     54  SD        24.6550   81.4080   37.0060 S.3   164  MET164     -0.1393
     55  CE        23.9890   79.9830   36.1270 C.3   164  MET164      0.0692
     56  N         24.3400   81.3930   32.6030 N.am  165  PHE165     -0.1976
     57  CA        25.0990   80.3760   31.8890 C.3   165  PHE165      0.1639
     58  C         25.5420   80.9940   30.5740 C.2   165  PHE165      0.2290
     59  O         26.6920   80.8560   30.1480 O.2   165  PHE165     -0.2864
     60  CB        24.2210   79.1580   31.6040 C.3   165  PHE165      0.0560
     61  CG        24.8080   78.2130   30.5960 C.ar  165  PHE165     -0.0200
     62  CD1       25.6100   77.1500   30.9990 C.ar  165  PHE165     -0.0042
     63  CD2       24.5750   78.4030   29.2330 C.ar  165  PHE165     -0.0042
     64  CE1       26.1740   76.2820   30.0630 C.ar  165  PHE165     -0.0003
     65  CE2       25.1320   77.5460   28.2840 C.ar  165  PHE165     -0.0003
     66  CZ        25.9350   76.4810   28.7000 C.ar  165  PHE165     -0.0000
     67  N         28.5690   83.2060   30.9320 N.3   168  ALA168     -0.1231
     68  CA        29.8130   82.4670   31.0890 C.3   168  ALA168      0.1694
     69  C         30.3690   82.0010   29.7500 C.2   168  ALA168      0.2591
     70  O         31.5860   82.0020   29.5540 O.2   168  ALA168     -0.2718
     71  CB        29.6030   81.2730   32.0030 C.3   168  ALA168      0.0304
     72  N         29.4870   81.6030   28.8340 N.am  169  MET169     -0.1979
     73  CA        29.9250   81.1430   27.5190 C.3   169  MET169      0.1605
     74  C         30.5180   82.2950   26.7150 C.2   169  MET169      0.2287
     75  O         31.5320   82.1330   26.0410 O.2   169  MET169     -0.2864
     76  CB        28.7650   80.5120   26.7350 C.3   169  MET169      0.0413
     77  CG        28.1890   79.2320   27.3460 C.3   169  MET169      0.0598
     78  SD        29.4230   77.9200   27.6680 S.3   169  MET169     -0.1393
     79  CE        29.6040   78.0270   29.4780 C.3   169  MET169      0.0692
     80  N         33.7950   83.0550   28.0710 N.3   172  ASP172     -0.1239
     81  CA        34.7630   82.0230   27.7430 C.3   172  ASP172      0.1674
     82  C         35.2750   82.1790   26.3090 C.2   172  ASP172      0.2266
     83  O         36.4580   81.9620   26.0390 O.2   172  ASP172     -0.2867
     84  CB        34.1340   80.6430   27.9340 C.3   172  ASP172      0.1410
     85  CG        35.1470   79.5180   27.8260 C.2   172  ASP172      0.3668
     86  OD1       36.0840   79.4830   28.6480 O.co2 172  ASP172     -0.2456
     87  OD2       35.0050   78.6670   26.9210 O.co2 172  ASP172     -0.2456
     88  N         37.6910   73.3010   19.6170 N.3   255  TRP255     -0.1241
     89  CA        36.5710   72.6210   20.2510 C.3   255  TRP255      0.1605
     90  C         35.7660   71.7740   19.2790 C.2   255  TRP255      0.2264
     91  O         34.5390   71.8060   19.3010 O.2   255  TRP255     -0.2867
     92  CB        35.6270   73.6160   20.9470 C.3   255  TRP255      0.0550
     93  CG        36.2960   74.5310   21.9370 C.ar  255  TRP255      0.0003
     94  CD1       37.5720   74.4270   22.4270 C.ar  255  TRP255      0.0946
     95  CD2       35.7450   75.7290   22.5120 C.ar  255  TRP255      0.0152
     96  NE1       37.8530   75.4890   23.2580 N.ar  255  TRP255     -0.2442
     97  CE2       36.7520   76.3030   23.3300 C.ar  255  TRP255      0.0810
     98  CE3       34.5020   76.3750   22.4120 C.ar  255  TRP255      0.0012
     99  CZ2       36.5530   77.4930   24.0440 C.ar  255  TRP255      0.0191
    100  CZ3       34.3040   77.5620   23.1230 C.ar  255  TRP255      0.0001
    101  CH2       35.3280   78.1060   23.9280 C.ar  255  TRP255      0.0015
    102  N         37.6870   69.2290   36.1450 N.3   308  TYR308     -0.1241
    103  CA        36.8140   69.7700   35.1110 C.3   308  TYR308      0.1605
    104  C         36.2080   68.6200   34.3230 C.2   308  TYR308      0.2264
    105  O         35.0140   68.6100   34.0110 O.2   308  TYR308     -0.2867
    106  CB        37.6010   70.6990   34.1910 C.3   308  TYR308      0.0534
    107  CG        36.7530   71.3730   33.1450 C.ar  308  TYR308     -0.0201
    108  CD1       36.6560   70.8510   31.8550 C.ar  308  TYR308     -0.0009
    109  CD2       36.0390   72.5310   33.4480 C.ar  308  TYR308     -0.0009
    110  CE1       35.8680   71.4740   30.8910 C.ar  308  TYR308      0.0417
    111  CE2       35.2510   73.1600   32.4920 C.ar  308  TYR308      0.0417
    112  CZ        35.1720   72.6310   31.2180 C.ar  308  TYR308      0.1957
    113  OH        34.4220   73.2800   30.2630 O.3   308  TYR308     -0.2866
    114  N         33.3210   67.2560   35.8550 N.3   311  VAL311     -0.1231
    115  CA        32.1330   68.0850   35.7810 C.3   311  VAL311      0.1692
    116  C         31.4960   67.7910   34.4350 C.2   311  VAL311      0.2591
    117  O         30.2740   67.7210   34.3200 O.2   311  VAL311     -0.2718
    118  CB        32.4600   69.6030   35.8710 C.3   311  VAL311      0.0266
    119  CG1       31.2050   70.4180   35.6090 C.3   311  VAL311      0.0020
    120  CG2       33.0190   69.9420   37.2520 C.3   311  VAL311      0.0020
    121  N         32.3300   67.6120   33.4160 N.am  312  MET312     -0.1979
    122  CA        31.8280   67.3210   32.0760 C.3   312  MET312      0.1605
    123  C         31.1000   65.9780   32.0900 C.2   312  MET312      0.2287
    124  O         30.1420   65.7600   31.3440 O.2   312  MET312     -0.2864
    125  CB        32.9860   67.2730   31.0670 C.3   312  MET312      0.0413
    126  CG        33.6980   68.6040   30.8360 C.3   312  MET312      0.0598
    127  SD        32.6420   69.8720   30.0780 S.3   312  MET312     -0.1393
    128  CE        32.2110   70.8510   31.4950 C.3   312  MET312      0.0692
    129  N         27.6190   66.3750   34.2780 N.3   315  MET315     -0.1230
    130  CA        26.6650   67.3250   33.7060 C.3   315  MET315      0.1702
    131  C         26.2040   66.9690   32.3010 C.2   315  MET315      0.2592
    132  O         25.0280   67.1180   31.9710 O.2   315  MET315     -0.2718
    133  CB        27.2850   68.7110   33.6580 C.3   315  MET315      0.0401
    134  CG        27.7300   69.2160   35.0080 C.3   315  MET315      0.0596
    135  SD        26.3620   69.9450   35.8830 S.3   315  MET315     -0.1393
    136  CE        26.4910   71.6350   35.2090 C.3   315  MET315      0.0692
    137  N         27.1410   66.4890   31.4840 N.am  316  PHE316     -0.1976
    138  CA        26.8580   66.1610   30.0920 C.3   316  PHE316      0.1639
    139  C         27.2620   64.7440   29.7050 C.2   316  PHE316      0.2290
    140  O         26.9390   64.2680   28.6070 O.2   316  PHE316     -0.2864
    141  CB        27.6010   67.1640   29.2110 C.3   316  PHE316      0.0560
    142  CG        27.4490   68.5810   29.6700 C.ar  316  PHE316     -0.0200
    143  CD1       26.2430   69.2530   29.5000 C.ar  316  PHE316     -0.0042
    144  CD2       28.4900   69.2270   30.3210 C.ar  316  PHE316     -0.0042
    145  CE1       26.0740   70.5490   29.9730 C.ar  316  PHE316     -0.0003
    146  CE2       28.3370   70.5270   30.8000 C.ar  316  PHE316     -0.0003
    147  CZ        27.1260   71.1900   30.6260 C.ar  316  PHE316     -0.0000
    148  N         43.4090   74.7180   29.8960 N.3   347  LYS347     -0.1245
    149  CA        43.1220   74.2430   28.5330 C.3   347  LYS347      0.1561
    150  C         44.4430   74.0820   27.7800 C.2   347  LYS347      0.2260
    151  O         45.5030   74.3710   28.3190 O.2   347  LYS347     -0.2867
    152  CB        42.2570   75.2430   27.7580 C.3   347  LYS347      0.0271
    153  CG        41.0640   75.8420   28.4920 C.3   347  LYS347      0.0035
    154  CD        40.0410   74.8210   28.8840 C.3   347  LYS347      0.0206
    155  CE        38.8390   75.4950   29.5450 C.3   347  LYS347      0.1093
    156  NZ        38.0090   76.3020   28.5960 N.3   347  LYS347     -0.1314
@<TRIPOS>BOND
     1    90    91    2
     2    90    89    1
     3    88    89    1
     4    89    92    1
     5    92    93    1
     6    93    94   ar
     7    93    95   ar
     8    98    95   ar
     9    98   100   ar
    10    94    96   ar
    11    95    97   ar
    12   100   101   ar
    13    96    97   ar
    14    97    99   ar
    15   101    99   ar
    16    83    82    2
    17    75    74    2
    18    82    81    1
    19    74    73    1
    20    76    77    1
    21    76    73    1
    22    87    85   ar
    23    77    78    1
    24    73    72    1
    25    78    79    1
    26    81    84    1
    27    81    80    1
    28   152   153    1
    29   152   149    1
    30   150   151    2
    31   150   149    1
    32    85    84    1
    33    85    86   ar
    34    65    66   ar
    35    65    63   ar
    36   153   154    1
    37   149   148    1
    38   156   155    1
    39   140   139    2
    40    66    64   ar
    41    72    69   am
    42   154   155    1
    43   141   142    1
    44   141   138    1
    45    63    61   ar
    46   143   142   ar
    47   143   145   ar
    48    70    69    2
    49   142   144   ar
    50   139   138    1
    51    69    68    1
    52   145   147   ar
    53    64    62   ar
    54   127   126    1
    55   127   128    1
    56   138   137    1
    57    59    58    2
    58   113   112    1
    59   144   146   ar
    60    58    57    1
    61    61    62   ar
    62    61    60    1
    63   147   146   ar
    64    32    33    2
    65    32    31    1
    66   126   125    1
    67   110   112   ar
    68   110   108   ar
    69    67    68    1
    70   125   122    1
    71    68    71    1
    72   112   111   ar
    73    37    39   ar
    74    37    35   ar
    75   124   123    2
    76    30    31    1
    77   137   131   am
    78    60    57    1
    79    39    40   ar
    80    31    34    1
    81     8     6    1
    82    34    35    1
    83   108   107   ar
    84    57    56    1
    85   132   131    2
    86   122   123    1
    87   122   121    1
    88    35    36   ar
    89   131   130    1
    90   111   109   ar
    91     6     5    1
    92    51    50    2
    93    56    50   am
    94    50    49    1
    95    48    49    1
    96    40    38   ar
    97   107   109   ar
    98   107   106    1
    99   121   116   am
   100    44    43    2
   101    36    38   ar
   102    49    52    1
   103    43    42    1
   104   133   130    1
   105   133   134    1
   106   130   129    1
   107   105   104    2
   108     5     7    1
   109     5     2    1
   110   106   103    1
   111   117   116    2
   112   104   103    1
   113   116   115    1
   114     2     1    1
   115     2     3    1
   116   134   135    1
   117    41    42    1
   118    52    53    1
   119    42    45    1
   120   103   102    1
   121   136   135    1
   122    45    47    1
   123    45    46    1
   124   119   118    1
   125    53    54    1
   126   115   114    1
   127   115   118    1
   128   118   120    1
   129    55    54    1
   130     3     4    2
   131    10    11    1
   132    10     9    1
   133    11    13   am
   134    11    12    2
   135    13    14    1
   136    23    22    1
   137    29    28    1
   138    17    14    1
   139    14    15    1
   140    22    19    1
   141    21    20    2
   142    28    25    1
   143    20    19    1
   144    20    24   am
   145    25    24    1
   146    25    26    1
   147    15    16    2
   148    19    18    1
   149    27    26    2
