@<TRIPOS>MOLECULE
tmp/1zgqC00.pdb
 99 97 0 0 0
SMALL
GASTEIGER

@<TRIPOS>ATOM
      1  N        -22.2120   10.1980    4.3640 N.3    49  LEU49      -0.1245
      2  CA       -21.0010   10.0780    5.1780 C.3    49  LEU49       0.1561
      3  C        -19.8380   10.9560    4.7070 C.2    49  LEU49       0.2260
      4  O        -19.5210   10.9740    3.5200 O.2    49  LEU49      -0.2867
      5  CB       -20.5570    8.6130    5.2360 C.3    49  LEU49       0.0270
      6  CG       -21.5990    7.5760    5.6710 C.3    49  LEU49       0.0019
      7  CD1      -21.0050    6.2030    5.5420 C.3    49  LEU49       0.0001
      8  CD2      -22.0780    7.8210    7.0850 C.3    49  LEU49       0.0001
      9  N        -16.7490   10.5450    5.2340 N.3    51  PHE51      -0.1227
     10  CA       -15.5430    9.7170    5.2340 C.3    51  PHE51       0.1736
     11  C        -15.6790    8.5370    4.2700 C.2    51  PHE51       0.2595
     12  O        -16.7930    8.1870    3.8740 O.2    51  PHE51      -0.2718
     13  CB       -15.2140    9.2160    6.6560 C.3    51  PHE51       0.0547
     14  CG       -16.3200    8.4240    7.3020 C.ar   51  PHE51      -0.0202
     15  CD1      -16.3910    7.0280    7.1370 C.ar   51  PHE51      -0.0042
     16  CD2      -17.3290    9.0750    8.0310 C.ar   51  PHE51      -0.0042
     17  CE1      -17.4480    6.2910    7.6770 C.ar   51  PHE51      -0.0003
     18  CE2      -18.4090    8.3480    8.5830 C.ar   51  PHE51      -0.0003
     19  CZ       -18.4650    6.9470    8.4000 C.ar   51  PHE51      -0.0000
     20  N        -14.5550    7.8600    4.0210 N.am   52  ALA52      -0.1966
     21  CA       -14.4750    6.7090    3.1190 C.3    52  ALA52       0.1728
     22  C        -15.3110    5.5250    3.5770 C.2    52  ALA52       0.2616
     23  O        -15.1780    5.0640    4.7150 O.2    52  ALA52      -0.2715
     24  CB       -13.0240    6.2810    2.9480 C.3    52  ALA52       0.0334
     25  N        -16.1980    5.0600    2.6950 N.am   53  TRP53      -0.1960
     26  CA       -17.0640    3.9120    2.9740 C.3    53  TRP53       0.1771
     27  C        -16.2350    2.6710    3.2880 C.2    53  TRP53       0.2619
     28  O        -16.6340    1.8500    4.1090 O.2    53  TRP53      -0.2715
     29  CB       -17.9760    3.6050    1.7630 C.3    53  TRP53       0.0590
     30  CG       -18.8240    2.3630    1.9350 C.ar   53  TRP53       0.0006
     31  CD1      -18.5080    1.0860    1.5340 C.ar   53  TRP53       0.0946
     32  CD2      -20.0330    2.2550    2.6870 C.ar   53  TRP53       0.0152
     33  NE1      -19.4250    0.1940    2.0200 N.ar   53  TRP53      -0.2442
     34  CE2      -20.3770    0.8770    2.7280 C.ar   53  TRP53       0.0810
     35  CE3      -20.8670    3.1870    3.3370 C.ar   53  TRP53       0.0012
     36  CZ2      -21.5220    0.4040    3.3980 C.ar   53  TRP53       0.0191
     37  CZ3      -22.0160    2.7160    4.0100 C.ar   53  TRP53       0.0001
     38  CH2      -22.3270    1.3310    4.0310 C.ar   53  TRP53       0.0015
     39  N        -15.1120    2.5380    2.5890 N.am   54  ASP54      -0.1971
     40  CA       -14.2130    1.3980    2.7220 C.3    54  ASP54       0.1709
     41  C        -13.8340    0.9290    4.1310 C.2    54  ASP54       0.2293
     42  O        -13.7110   -0.2710    4.3530 O.2    54  ASP54      -0.2864
     43  CB       -12.9630    1.6320    1.8950 C.3    54  ASP54       0.1436
     44  CG       -13.2150    1.5410    0.4000 C.2    54  ASP54       0.3671
     45  OD1      -14.0940    0.7620   -0.0350 O.co2  54  ASP54      -0.2456
     46  OD2      -12.5040    2.2400   -0.3490 O.co2  54  ASP54      -0.2456
     47  N        -11.8450   11.0030    1.4160 N.3   130  LYS130     -0.1245
     48  CA       -12.4500    9.9830    0.5350 C.3   130  LYS130      0.1561
     49  C        -11.5790    9.6060   -0.6710 C.2   130  LYS130      0.2260
     50  O        -12.0420    9.6000   -1.8200 O.2   130  LYS130     -0.2867
     51  CB       -13.8440   10.4120    0.0490 C.3   130  LYS130      0.0271
     52  CG       -14.8750   10.6500    1.1210 C.3   130  LYS130      0.0035
     53  CD       -16.1530   11.1140    0.4650 C.3   130  LYS130      0.0206
     54  CE       -17.1260   11.6280    1.4800 C.3   130  LYS130      0.1093
     55  NZ       -18.3900   12.0910    0.8520 N.3   130  LYS130     -0.1314
     56  N         -9.8750    6.6220   -0.9590 N.3   132  THR132     -0.1203
     57  CA        -9.6970    5.1740   -1.0250 C.3   132  THR132      0.1994
     58  C        -10.4970    4.5470   -2.1690 C.2   132  THR132      0.2617
     59  O        -11.5880    5.0220   -2.5120 O.2   132  THR132     -0.2717
     60  CB       -10.0250    4.4870    0.3200 C.3   132  THR132      0.1784
     61  OG1      -11.4220    4.5990    0.6000 O.3   132  THR132     -0.2211
     62  CG2       -9.2260    5.1260    1.4610 C.3   132  THR132      0.0376
     63  N         -9.9280    3.4950   -2.7600 N.am  133  MET133     -0.1979
     64  CA       -10.5200    2.7740   -3.8900 C.3   133  MET133      0.1605
     65  C        -10.6270    1.2680   -3.6500 C.2   133  MET133      0.2287
     66  O        -10.1930    0.4600   -4.4790 O.2   133  MET133     -0.2864
     67  CB        -9.6920    3.0200   -5.1550 C.3   133  MET133      0.0413
     68  CG       -10.0000    4.2910   -5.8980 C.3   133  MET133      0.0598
     69  SD        -8.9410    4.3790   -7.3440 S.3   133  MET133     -0.1393
     70  CE        -9.9120    3.4460   -8.5490 C.3   133  MET133      0.0692
     71  N         -6.4720    6.4920   -5.0030 N.3   160  LYS160     -0.1245
     72  CA        -6.7030    6.9550   -6.3780 C.3   160  LYS160      0.1561
     73  C         -5.5520    7.6830   -7.0600 C.2   160  LYS160      0.2260
     74  O         -5.4610    7.6970   -8.2920 O.2   160  LYS160     -0.2867
     75  CB        -8.0270    7.7200   -6.5230 C.3   160  LYS160      0.0271
     76  CG        -8.2580    8.9390   -5.6530 C.3   160  LYS160      0.0035
     77  CD        -9.6890    9.4050   -5.8990 C.3   160  LYS160      0.0206
     78  CE       -10.0290   10.6970   -5.1890 C.3   160  LYS160      0.1093
     79  NZ       -11.4590   11.0500   -5.4160 N.3   160  LYS160     -0.1314
     80  N        -23.6540    9.1980   -3.6400 N.3   199  ASP199     -0.1225
     81  CA       -23.1550    9.6370   -2.3330 C.3   199  ASP199      0.1805
     82  C        -22.8820    8.5300   -1.3010 C.2   199  ASP199      0.2597
     83  O        -22.6810    8.8150   -0.1150 O.2   199  ASP199     -0.2718
     84  CB       -24.1010   10.7110   -1.7530 C.3   199  ASP199      0.1424
     85  CG       -25.5340   10.2070   -1.5350 C.2   199  ASP199      0.3668
     86  OD1      -26.2670   10.8410   -0.7450 O.co2 199  ASP199     -0.2456
     87  OD2      -25.9320    9.1840   -2.1390 O.co2 199  ASP199     -0.2456
     88  N        -22.8680    7.2790   -1.7700 N.am  200  TYR200     -0.1976
     89  CA       -22.6320    6.0750   -0.9540 C.3   200  TYR200      0.1639
     90  C        -23.6360    5.8230    0.1810 C.2   200  TYR200      0.2290
     91  O        -23.2810    5.2940    1.2400 O.2   200  TYR200     -0.2864
     92  CB       -21.1810    6.0170   -0.4330 C.3   200  TYR200      0.0560
     93  CG       -20.1380    5.6740   -1.4750 C.ar  200  TYR200     -0.0198
     94  CD1      -19.6810    6.6440   -2.3940 C.ar  200  TYR200     -0.0009
     95  CD2      -19.5560    4.3910   -1.5140 C.ar  200  TYR200     -0.0009
     96  CE1      -18.6530    6.3420   -3.3340 C.ar  200  TYR200      0.0417
     97  CE2      -18.5220    4.0740   -2.4460 C.ar  200  TYR200      0.0417
     98  CZ       -18.0810    5.0570   -3.3490 C.ar  200  TYR200      0.1957
     99  OH       -17.0850    4.7640   -4.2520 O.3   200  TYR200     -0.2866
@<TRIPOS>BOND
     1    70    69    1
     2    74    73    2
     3    69    68    1
     4    73    72    1
     5    75    72    1
     6    75    76    1
     7    72    71    1
     8    77    76    1
     9    77    78    1
    10    68    67    1
    11    79    78    1
    12    67    64    1
    13    66    65    2
    14    99    98    1
    15    64    65    1
    16    64    63    1
    17    80    81    1
    18    98    96   ar
    19    98    97   ar
    20    96    94   ar
    21    63    58   am
    22    59    58    2
    23    97    95   ar
    24    94    93   ar
    25    81    84    1
    26    81    82    1
    27    58    57    1
    28    87    85   ar
    29    50    49    2
    30    88    82   am
    31    88    89    1
    32    84    85    1
    33    85    86   ar
    34    95    93   ar
    35    93    92    1
    36    82    83    2
    37    57    56    1
    38    57    60    1
    39    89    92    1
    40    89    90    1
    41    49    48    1
    42    46    44   ar
    43    45    44   ar
    44    51    48    1
    45    51    52    1
    46    90    91    2
    47    60    61    1
    48    60    62    1
    49    44    43    1
    50    53    52    1
    51    53    54    1
    52    48    47    1
    53    55    54    1
    54    31    30   ar
    55    31    33   ar
    56    29    30    1
    57    29    26    1
    58    43    40    1
    59    30    32   ar
    60    33    34   ar
    61    39    40    1
    62    39    27   am
    63    32    34   ar
    64    32    35   ar
    65    25    26    1
    66    25    22   am
    67    40    41    1
    68    34    36   ar
    69    24    21    1
    70    26    27    1
    71    21    22    1
    72    21    20    1
    73    27    28    2
    74    35    37   ar
    75    36    38   ar
    76     4     3    2
    77    22    23    2
    78    12    11    2
    79    37    38   ar
    80    20    11   am
    81    41    42    2
    82    11    10    1
    83     1     2    1
    84     3     2    1
    85     2     5    1
    86     9    10    1
    87    10    13    1
    88     5     6    1
    89     7     6    1
    90     6     8    1
    91    13    14    1
    92    15    14   ar
    93    15    17   ar
    94    14    16   ar
    95    17    19   ar
    96    16    18   ar
    97    19    18   ar
