@<TRIPOS>MOLECULE
tmp/1zgqD00.pdb
 85 87 0 0 0
SMALL
GASTEIGER

@<TRIPOS>ATOM
      1  N         -1.3360   32.7840   30.3420 N.3    70  ASP70      -0.1225
      2  CA        -0.4770   32.6970   29.1600 C.3    70  ASP70       0.1805
      3  C         -0.6260   31.4310   28.3010 C.2    70  ASP70       0.2598
      4  O          0.0880   31.2630   27.3100 O.2    70  ASP70      -0.2718
      5  CB         0.9950   32.9860   29.5270 C.3    70  ASP70       0.1424
      6  CG         1.6350   31.8950   30.3820 C.2    70  ASP70       0.3668
      7  OD1        0.9320   31.2110   31.1570 O.co2  70  ASP70      -0.2456
      8  OD2        2.8690   31.7380   30.2790 O.co2  70  ASP70      -0.2456
      9  N         -1.5050   30.5200   28.7190 N.am   71  ILE71      -0.1966
     10  CA        -1.7750   29.3000   27.9510 C.3    71  ILE71       0.1712
     11  C         -3.2540   29.3250   27.5440 C.2    71  ILE71       0.2458
     12  O         -4.1310   29.1740   28.4010 O.2    71  ILE71      -0.2730
     13  CB        -1.4730   27.9750   28.7320 C.3    71  ILE71       0.0289
     14  CG1       -0.0050   27.9260   29.1670 C.3    71  ILE71       0.0022
     15  CG2       -1.7530   26.7460   27.8270 C.3    71  ILE71       0.0023
     16  CD1        0.3700   26.7120   30.0020 C.3    71  ILE71       0.0001
     17  N         -3.5490   29.5280   26.2360 N.am   72  PRO72      -0.2727
     18  CA        -4.9160   29.5720   25.6930 C.3    72  PRO72       0.1402
     19  C         -5.7350   28.3620   26.1230 C.2    72  PRO72       0.2269
     20  O         -5.3010   27.2090   25.9570 O.2    72  PRO72      -0.2865
     21  CB        -4.6760   29.5710   24.1890 C.3    72  PRO72       0.0296
     22  CG        -3.4280   30.3920   24.0750 C.3    72  PRO72       0.0237
     23  CD        -2.5720   29.8120   25.1670 C.3    72  PRO72       0.0939
     24  N         -8.7930   29.7980   19.5750 N.3   180  GLN180     -0.1231
     25  CA        -7.3540   29.8420   19.8330 C.3   180  GLN180      0.1698
     26  C         -6.7540   28.5680   20.4200 C.2   180  GLN180      0.2592
     27  O         -7.2540   28.0000   21.3990 O.2   180  GLN180     -0.2718
     28  CB        -6.9970   31.0460   20.7070 C.3   180  GLN180      0.0381
     29  CG        -5.5180   31.4460   20.6510 C.3   180  GLN180      0.0905
     30  CD        -5.1570   32.5680   21.6200 C.2   180  GLN180      0.2608
     31  OE1       -4.0950   33.1760   21.5020 O.2   180  GLN180     -0.2717
     32  NE2       -6.0160   32.8110   22.6080 N.am  180  GLN180     -0.0878
     33  N         -5.7040   28.1130   19.7490 N.am  181  LEU181     -0.1966
     34  CA        -4.9690   26.9220   20.1230 C.3   181  LEU181      0.1713
     35  C         -3.7000   27.2550   20.9000 C.2   181  LEU181      0.2458
     36  O         -3.0400   28.2630   20.6220 O.2   181  LEU181     -0.2730
     37  CB        -4.5720   26.1420   18.8640 C.3   181  LEU181      0.0310
     38  CG        -5.5720   25.1760   18.2350 C.3   181  LEU181      0.0022
     39  CD1       -5.1020   24.8090   16.8370 C.3   181  LEU181      0.0001
     40  CD2       -5.6750   23.9360   19.1130 C.3   181  LEU181      0.0001
     41  N         -3.3740   26.4450   21.9270 N.am  182  PRO182     -0.2716
     42  CA        -2.1540   26.7020   22.6930 C.3   182  PRO182      0.1536
     43  C         -0.9860   26.0300   21.9810 C.2   182  PRO182      0.2599
     44  O         -1.1700   25.3750   20.9480 O.2   182  PRO182     -0.2715
     45  CB        -2.4440   26.0120   24.0200 C.3   182  PRO182      0.0310
     46  CG        -3.2740   24.8490   23.6120 C.3   182  PRO182      0.0237
     47  CD        -4.2140   25.4370   22.6070 C.3   182  PRO182      0.0939
     48  N          0.2010   26.1920   22.5450 N.am  183  GLY183     -0.1941
     49  CA         1.3730   25.5510   22.0030 C.3   183  GLY183      0.2014
     50  C          1.6050   24.2920   22.8180 C.2   183  GLY183      0.2639
     51  O          0.6730   23.7440   23.4160 O.2   183  GLY183     -0.2714
     52  N          2.8580   23.8630   22.8840 N.am  184  TYR184     -0.1959
     53  CA         3.2570   22.6820   23.6440 C.3   184  TYR184      0.1771
     54  C          3.1180   22.9690   25.1480 C.2   184  TYR184      0.2619
     55  O          3.5970   23.9970   25.6150 O.2   184  TYR184     -0.2715
     56  CB         4.7180   22.3820   23.3240 C.3   184  TYR184      0.0574
     57  CG         5.1560   20.9630   23.5330 C.ar  184  TYR184     -0.0198
     58  CD1        5.0160   20.0190   22.5000 C.ar  184  TYR184     -0.0009
     59  CD2        5.8010   20.5650   24.7260 C.ar  184  TYR184     -0.0009
     60  CE1        5.5160   18.7200   22.6340 C.ar  184  TYR184      0.0417
     61  CE2        6.3030   19.2480   24.8810 C.ar  184  TYR184      0.0417
     62  CZ         6.1600   18.3390   23.8270 C.ar  184  TYR184      0.1957
     63  OH         6.6530   17.0580   23.9480 O.3   184  TYR184     -0.2866
     64  N          2.4180   22.0950   25.8740 N.am  185  TYR185     -0.1974
     65  CA         2.2430   22.2330   27.3250 C.3   185  TYR185      0.1639
     66  C          1.8580   20.9200   28.0110 C.2   185  TYR185      0.2290
     67  O          1.7220   19.8790   27.3590 O.2   185  TYR185     -0.2864
     68  CB         1.2850   23.3920   27.7010 C.3   185  TYR185      0.0560
     69  CG        -0.2090   23.1170   27.6590 C.ar  185  TYR185     -0.0198
     70  CD1       -0.9640   23.0730   28.8580 C.ar  185  TYR185     -0.0009
     71  CD2       -0.8890   22.9580   26.4350 C.ar  185  TYR185     -0.0009
     72  CE1       -2.3620   22.8810   28.8370 C.ar  185  TYR185      0.0417
     73  CE2       -2.2970   22.7670   26.4030 C.ar  185  TYR185      0.0417
     74  CZ        -3.0230   22.7310   27.6030 C.ar  185  TYR185      0.1957
     75  OH        -4.3920   22.5590   27.5690 O.3   185  TYR185     -0.2866
     76  N          3.3300   24.9210   31.9860 N.3   213  HIS213     -0.1241
     77  CA         4.4640   24.7920   31.0720 C.3   213  HIS213      0.1621
     78  C          5.3410   23.7560   31.7790 C.2   213  HIS213      0.2264
     79  O          5.1170   23.4490   32.9630 O.2   213  HIS213     -0.2867
     80  CB         5.2850   26.0840   31.0060 C.3   213  HIS213      0.0745
     81  CG         4.5760   27.2460   30.3880 C.ar  213  HIS213      0.0817
     82  ND1        4.3320   27.3380   29.0340 N.ar  213  HIS213     -0.2268
     83  CD2        4.1400   28.4080   30.9290 C.ar  213  HIS213      0.1154
     84  CE1        3.7840   28.5100   28.7680 C.ar  213  HIS213      0.1986
     85  NE2        3.6570   29.1770   29.9010 N.ar  213  HIS213     -0.2212
@<TRIPOS>BOND
     1    39    38    1
     2    38    37    1
     3    38    40    1
     4    37    34    1
     5    24    25    1
     6    33    34    1
     7    33    26   am
     8    25    26    1
     9    25    28    1
    10    34    35    1
    11    26    27    2
    12    36    35    2
    13    29    28    1
    14    29    30    1
    15    35    41   am
    16    44    43    2
    17    31    30    2
    18    30    32   am
    19    41    47    1
    20    41    42    1
    21    43    48   am
    22    43    42    1
    23    49    48    1
    24    49    50    1
    25    58    60   ar
    26    58    57   ar
    27    47    46    1
    28    60    62   ar
    29    42    45    1
    30    50    52   am
    31    50    51    2
    32    52    53    1
    33    56    57    1
    34    56    53    1
    35    57    59   ar
    36    46    45    1
    37    53    54    1
    38    62    63    1
    39    62    61   ar
    40    22    21    1
    41    22    23    1
    42    21    18    1
    43    59    61   ar
    44    54    55    2
    45    54    64   am
    46    23    17    1
    47    18    19    1
    48    18    17    1
    49    64    65    1
    50    20    19    2
    51    17    11   am
    52    73    71   ar
    53    73    74   ar
    54    71    69   ar
    55     4     3    2
    56    65    68    1
    57    65    66    1
    58    67    66    2
    59    11    10    1
    60    11    12    2
    61    75    74    1
    62    74    72   ar
    63    69    68    1
    64    69    70   ar
    65    15    13    1
    66    10     9    1
    67    10    13    1
    68     3     9   am
    69     3     2    1
    70    13    14    1
    71    84    82   ar
    72    84    85   ar
    73    72    70   ar
    74    82    81   ar
    75     2     5    1
    76     2     1    1
    77    14    16    1
    78     5     6    1
    79    85    83   ar
    80     8     6   ar
    81     6     7   ar
    82    81    83   ar
    83    81    80    1
    84    80    77    1
    85    77    78    1
    86    77    76    1
    87    78    79    2
