@<TRIPOS>MOLECULE
tmp/1zgsB02.pdb
 81 78 0 0 0
SMALL
GASTEIGER

@<TRIPOS>ATOM
      1  N         24.1860  -14.5030   53.1710 N.3   308  GLY308     -0.1210
      2  CA        25.1770  -15.1470   54.0550 C.3   308  GLY308      0.1956
      3  C         26.2230  -15.9960   53.3240 C.2   308  GLY308      0.2612
      4  O         26.3120  -16.0000   52.0940 O.2   308  GLY308     -0.2717
      5  N         27.0350  -16.7120   54.0900 N.am  309  GLY309     -0.1942
      6  CA        28.0560  -17.5890   53.5320 C.3   309  GLY309      0.2014
      7  C         29.3500  -16.8570   53.2690 C.2   309  GLY309      0.2638
      8  O         29.3580  -15.6370   53.1290 O.2   309  GLY309     -0.2714
      9  N         30.4440  -17.6070   53.2170 N.am  310  ASP310     -0.1971
     10  CA        31.7530  -17.0720   52.8690 C.3   310  ASP310      0.1709
     11  C         31.9600  -17.0420   51.3420 C.2   310  ASP310      0.2293
     12  O         31.5570  -17.9880   50.6310 O.2   310  ASP310     -0.2864
     13  CB        32.8290  -17.9540   53.4970 C.3   310  ASP310      0.1436
     14  CG        32.7120  -18.0380   54.9970 C.2   310  ASP310      0.3671
     15  OD1       32.4690  -17.0170   55.6570 O.co2 310  ASP310     -0.2456
     16  OD2       32.8440  -19.0900   55.6190 O.co2 310  ASP310     -0.2456
     17  N         17.1540  -23.7090   62.4860 N.3   384  ASP384     -0.1225
     18  CA        16.9680  -22.3230   62.0850 C.3   384  ASP384      0.1805
     19  C         16.4700  -22.1210   60.6480 C.2   384  ASP384      0.2598
     20  O         16.3600  -23.0800   59.8790 O.2   384  ASP384     -0.2718
     21  CB        18.2810  -21.6080   62.2830 C.3   384  ASP384      0.1424
     22  CG        18.5210  -21.2990   63.7220 C.2   384  ASP384      0.3668
     23  OD1       19.2090  -22.0950   64.4170 O.co2 384  ASP384     -0.2456
     24  OD2       17.9860  -20.2970   64.2520 O.co2 384  ASP384     -0.2456
     25  N         16.1450  -20.8640   60.3240 N.am  385  VAL385     -0.1966
     26  CA        15.7410  -20.4330   58.9870 C.3   385  VAL385      0.1727
     27  C         16.9180  -19.8090   58.2250 C.2   385  VAL385      0.2616
     28  O         17.7140  -19.0760   58.8130 O.2   385  VAL385     -0.2715
     29  CB        14.5670  -19.4150   59.0720 C.3   385  VAL385      0.0290
     30  CG1       14.9350  -18.0400   58.4500 C.3   385  VAL385      0.0023
     31  CG2       13.2850  -20.0010   58.4570 C.3   385  VAL385      0.0023
     32  N         17.0270  -20.1110   56.9240 N.am  386  PHE386     -0.1974
     33  CA        18.1120  -19.5880   56.0820 C.3   386  PHE386      0.1639
     34  C         17.5500  -19.1330   54.7630 C.2   386  PHE386      0.2290
     35  O         16.4620  -19.5810   54.3340 O.2   386  PHE386     -0.2864
     36  CB        19.1970  -20.6470   55.7760 C.3   386  PHE386      0.0560
     37  CG        19.7180  -21.3950   56.9830 C.ar  386  PHE386     -0.0200
     38  CD1       18.9160  -22.3200   57.6540 C.ar  386  PHE386     -0.0042
     39  CD2       21.0260  -21.2190   57.4140 C.ar  386  PHE386     -0.0042
     40  CE1       19.4130  -23.0320   58.7540 C.ar  386  PHE386     -0.0003
     41  CE2       21.5350  -21.9320   58.5130 C.ar  386  PHE386     -0.0003
     42  CZ        20.7340  -22.8350   59.1810 C.ar  386  PHE386     -0.0000
     43  N         18.7360  -19.3620   50.9910 N.3   388  THR388     -0.1218
     44  CA        19.7240  -19.9830   50.1070 C.3   388  THR388      0.1862
     45  C         19.1720  -20.2630   48.7340 C.2   388  THR388      0.2287
     46  O         17.9710  -20.0730   48.4770 O.2   388  THR388     -0.2866
     47  CB        20.2950  -21.3060   50.6940 C.3   388  THR388      0.1770
     48  OG1       19.3420  -22.3730   50.5190 O.3   388  THR388     -0.2211
     49  CG2       20.5460  -21.1980   52.2170 C.3   388  THR388      0.0375
     50  N         28.1580  -21.8340   53.1060 N.3   429  GLY429     -0.1210
     51  CA        28.4630  -22.0820   54.5170 C.3   429  GLY429      0.1956
     52  C         27.9840  -23.4970   54.7380 C.2   429  GLY429      0.2612
     53  O         28.5450  -24.4170   54.1510 O.2   429  GLY429     -0.2717
     54  N         26.9340  -23.6730   55.5430 N.am  430  ASP430     -0.1959
     55  CA        26.2380  -24.9670   55.6290 C.3   430  ASP430      0.1840
     56  C         25.5970  -25.3310   54.2850 C.2   430  ASP430      0.2622
     57  O         25.5590  -26.4910   53.9050 O.2   430  ASP430     -0.2715
     58  CB        25.1630  -24.9570   56.7380 C.3   430  ASP430      0.1450
     59  CG        25.7600  -25.0260   58.1660 C.2   430  ASP430      0.3671
     60  OD1       26.9940  -25.0200   58.3510 O.co2 430  ASP430     -0.2456
     61  OD2       25.0620  -25.0880   59.1900 O.co2 430  ASP430     -0.2456
     62  N         25.0790  -24.3330   53.5810 N.am  431  TYR431     -0.1974
     63  CA        24.4440  -24.5250   52.2910 C.3   431  TYR431      0.1639
     64  C         24.9590  -23.5620   51.2170 C.2   431  TYR431      0.2290
     65  O         25.8500  -22.7680   51.4520 O.2   431  TYR431     -0.2864
     66  CB        22.9350  -24.3720   52.4480 C.3   431  TYR431      0.0560
     67  CG        22.4080  -25.0190   53.7030 C.ar  431  TYR431     -0.0198
     68  CD1       21.9750  -24.2420   54.7620 C.ar  431  TYR431     -0.0009
     69  CD2       22.3800  -26.4090   53.8440 C.ar  431  TYR431     -0.0009
     70  CE1       21.5000  -24.8150   55.9280 C.ar  431  TYR431      0.0417
     71  CE2       21.9130  -26.9990   55.0220 C.ar  431  TYR431      0.0417
     72  CZ        21.4670  -26.1910   56.0570 C.ar  431  TYR431      0.1957
     73  OH        20.9880  -26.7490   57.2210 O.3   431  TYR431     -0.2866
     74  N         24.3830  -20.4690   49.8660 N.3   433  ASP433     -0.1239
     75  CA        23.6900  -19.1660   49.9440 C.3   433  ASP433      0.1674
     76  C         23.4640  -18.4850   48.5980 C.2   433  ASP433      0.2266
     77  O         22.3580  -17.9880   48.3420 O.2   433  ASP433     -0.2867
     78  CB        24.4590  -18.2040   50.8250 C.3   433  ASP433      0.1410
     79  CG        24.7330  -18.7730   52.1600 C.2   433  ASP433      0.3668
     80  OD1       24.0040  -18.3920   53.1270 O.co2 433  ASP433     -0.2456
     81  OD2       25.6280  -19.6370   52.3200 O.co2 433  ASP433     -0.2456
@<TRIPOS>BOND
     1    77    76    2
     2    46    45    2
     3    76    75    1
     4    45    44    1
     5    74    75    1
     6    75    78    1
     7    44    47    1
     8    44    43    1
     9    48    47    1
    10    12    11    2
    11    47    49    1
    12    78    79    1
    13    64    65    2
    14    64    63    1
    15    11    10    1
    16     4     3    2
    17    79    81   ar
    18    79    80   ar
    19    63    66    1
    20    63    62    1
    21    66    67    1
    22    10     9    1
    23    10    13    1
    24    50    51    1
    25     8     7    2
    26     1     2    1
    27     9     7   am
    28     7     6    1
    29     3     2    1
    30     3     5   am
    31    13    14    1
    32     6     5    1
    33    62    56   am
    34    67    69   ar
    35    67    68   ar
    36    69    71   ar
    37    57    56    2
    38    53    52    2
    39    56    55    1
    40    35    34    2
    41    51    52    1
    42    52    54   am
    43    68    70   ar
    44    34    33    1
    45    14    16   ar
    46    14    15   ar
    47    71    72   ar
    48    54    55    1
    49    55    58    1
    50    36    33    1
    51    36    37    1
    52    70    72   ar
    53    72    73    1
    54    33    32    1
    55    58    59    1
    56    32    27   am
    57    37    39   ar
    58    37    38   ar
    59    39    41   ar
    60    38    40   ar
    61    59    60   ar
    62    59    61   ar
    63    27    28    2
    64    27    26    1
    65    30    29    1
    66    31    29    1
    67    41    42   ar
    68    40    42   ar
    69    26    29    1
    70    26    25    1
    71    20    19    2
    72    25    19   am
    73    19    18    1
    74    18    21    1
    75    18    17    1
    76    21    22    1
    77    22    24   ar
    78    22    23   ar
