@<TRIPOS>MOLECULE
tmp/1zgsB01.pdb
 80 77 0 0 0
SMALL
GASTEIGER

@<TRIPOS>ATOM
      1  N         65.2260  -36.5680   47.9940 N.3   161  ALA161     -0.1231
      2  CA        64.4540  -37.4390   48.8840 C.3   161  ALA161      0.1694
      3  C         63.1490  -36.7890   49.4040 C.2   161  ALA161      0.2593
      4  O         62.6750  -35.8060   48.8410 O.2   161  ALA161     -0.2718
      5  CB        65.3430  -37.9610   50.0200 C.3   161  ALA161      0.0304
      6  N         62.5610  -37.3630   50.4460 N.am  162  GLY162     -0.1942
      7  CA        61.3300  -36.8550   51.0320 C.3   162  GLY162      0.2014
      8  C         60.2790  -37.9290   50.9150 C.2   162  GLY162      0.2638
      9  O         59.8030  -38.2010   49.8140 O.2   162  GLY162     -0.2714
     10  N         59.9230  -38.5590   52.0290 N.am  163  ASP163     -0.1971
     11  CA        58.9730  -39.6850   51.9900 C.3   163  ASP163      0.1709
     12  C         57.5380  -39.2770   51.5940 C.2   163  ASP163      0.2293
     13  O         56.7860  -40.1170   51.1390 O.2   163  ASP163     -0.2864
     14  CB        58.8970  -40.4580   53.3350 C.3   163  ASP163      0.1436
     15  CG        60.2770  -40.9430   53.8760 C.2   163  ASP163      0.3671
     16  OD1       61.3460  -40.7970   53.2070 O.co2 163  ASP163     -0.2456
     17  OD2       60.3620  -41.4790   55.0200 O.co2 163  ASP163     -0.2456
     18  N         57.9310  -32.2220   60.3340 N.3   204  GLN204     -0.1245
     19  CA        57.6770  -33.4490   61.0910 C.3   204  GLN204      0.1566
     20  C         58.6890  -33.6830   62.2130 C.2   204  GLN204      0.2260
     21  O         58.4470  -34.5390   63.0460 O.2   204  GLN204     -0.2867
     22  CB        57.6230  -34.6720   60.1690 C.3   204  GLN204      0.0367
     23  CG        56.3230  -34.8340   59.4010 C.3   204  GLN204      0.0905
     24  CD        56.3470  -36.0350   58.4470 C.2   204  GLN204      0.2608
     25  OE1       57.4060  -36.6250   58.1600 O.2   204  GLN204     -0.2717
     26  NE2       55.1780  -36.3870   57.9430 N.am  204  GLN204     -0.0878
     27  N         71.0120  -33.6760   55.1250 N.3   237  PHE237     -0.1241
     28  CA        69.9790  -33.8490   54.1030 C.3   237  PHE237      0.1605
     29  C         70.0920  -32.7920   53.0480 C.2   237  PHE237      0.2264
     30  O         70.5030  -31.6720   53.3430 O.2   237  PHE237     -0.2867
     31  CB        68.5870  -33.8000   54.7430 C.3   237  PHE237      0.0534
     32  CG        68.3970  -34.8380   55.7850 C.ar  237  PHE237     -0.0203
     33  CD1       68.5060  -34.5050   57.1380 C.ar  237  PHE237     -0.0042
     34  CD2       68.2020  -36.1790   55.4220 C.ar  237  PHE237     -0.0042
     35  CE1       68.3810  -35.4940   58.1400 C.ar  237  PHE237     -0.0003
     36  CE2       68.0790  -37.1770   56.4030 C.ar  237  PHE237     -0.0003
     37  CZ        68.1690  -36.8310   57.7780 C.ar  237  PHE237     -0.0000
     38  N         68.0320  -30.3840   51.0520 N.3   239  VAL239     -0.1245
     39  CA        66.6930  -29.8000   51.1710 C.3   239  VAL239      0.1561
     40  C         66.6490  -28.3530   50.7090 C.2   239  VAL239      0.2260
     41  O         67.6980  -27.7490   50.4770 O.2   239  VAL239     -0.2867
     42  CB        66.1730  -29.8990   52.6180 C.3   239  VAL239      0.0252
     43  CG1       66.3510  -31.3380   53.1550 C.3   239  VAL239      0.0019
     44  CG2       66.8660  -28.8830   53.5100 C.3   239  VAL239      0.0019
     45  N         59.5390  -34.2300   54.2250 N.3   280  GLY280     -0.1210
     46  CA        59.5760  -35.1550   55.3520 C.3   280  GLY280      0.1956
     47  C         59.7300  -34.3120   56.5940 C.2   280  GLY280      0.2612
     48  O         58.8610  -33.4760   56.8820 O.2   280  GLY280     -0.2717
     49  N         60.8320  -34.5190   57.3230 N.am  281  TYR281     -0.1962
     50  CA        61.2190  -33.6330   58.4310 C.3   281  TYR281      0.1771
     51  C         61.2490  -32.1870   57.9640 C.2   281  TYR281      0.2619
     52  O         60.7030  -31.3150   58.6420 O.2   281  TYR281     -0.2715
     53  CB        62.5480  -34.0680   59.0870 C.3   281  TYR281      0.0574
     54  CG        62.3080  -35.0080   60.2500 C.ar  281  TYR281     -0.0198
     55  CD1       61.1930  -35.8410   60.2560 C.ar  281  TYR281     -0.0009
     56  CD2       63.1830  -35.0680   61.3450 C.ar  281  TYR281     -0.0009
     57  CE1       60.9360  -36.6970   61.3110 C.ar  281  TYR281      0.0417
     58  CE2       62.9360  -35.9420   62.4320 C.ar  281  TYR281      0.0417
     59  CZ        61.8010  -36.7470   62.4030 C.ar  281  TYR281      0.1957
     60  OH        61.4890  -37.6320   63.4270 O.3   281  TYR281     -0.2866
     61  N         61.8400  -31.9640   56.7900 N.am  282  TYR282     -0.1974
     62  CA        61.9440  -30.6370   56.1710 C.3   282  TYR282      0.1639
     63  C         61.3740  -30.6450   54.7520 C.2   282  TYR282      0.2290
     64  O         60.8690  -31.6750   54.2790 O.2   282  TYR282     -0.2864
     65  CB        63.4130  -30.1460   56.1940 C.3   282  TYR282      0.0560
     66  CG        64.1160  -30.6100   57.4490 C.ar  282  TYR282     -0.0198
     67  CD1       65.1520  -31.5580   57.3990 C.ar  282  TYR282     -0.0009
     68  CD2       63.6750  -30.1640   58.7040 C.ar  282  TYR282     -0.0009
     69  CE1       65.7730  -32.0290   58.5960 C.ar  282  TYR282      0.0417
     70  CE2       64.2660  -30.6090   59.8790 C.ar  282  TYR282      0.0417
     71  CZ        65.3150  -31.5450   59.8250 C.ar  282  TYR282      0.1957
     72  OH        65.8560  -31.9560   61.0170 O.3   282  TYR282     -0.2866
     73  N         62.1940  -31.0200   51.3300 N.3   284  ASP284     -0.1239
     74  CA        63.2420  -31.5260   50.4010 C.3   284  ASP284      0.1674
     75  C         63.2810  -30.8470   49.0410 C.2   284  ASP284      0.2266
     76  O         64.3510  -30.5090   48.5640 O.2   284  ASP284     -0.2867
     77  CB        63.1260  -33.0360   50.1720 C.3   284  ASP284      0.1410
     78  CG        63.3130  -33.8230   51.4390 C.2   284  ASP284      0.3668
     79  OD1       64.3810  -34.4770   51.5930 O.co2 284  ASP284     -0.2456
     80  OD2       62.4590  -33.8160   52.3510 O.co2 284  ASP284     -0.2456
@<TRIPOS>BOND
     1     1     2    1
     2    76    75    2
     3     4     3    2
     4     2     3    1
     5     2     5    1
     6    75    74    1
     7     3     6   am
     8     9     8    2
     9    77    74    1
    10    77    78    1
    11    74    73    1
    12     6     7    1
    13    41    40    2
    14    40    39    1
    15     8     7    1
    16     8    10   am
    17    38    39    1
    18    13    12    2
    19    39    42    1
    20    78    79   ar
    21    78    80   ar
    22    12    11    1
    23    11    10    1
    24    11    14    1
    25    42    43    1
    26    42    44    1
    27    29    30    2
    28    29    28    1
    29    16    15   ar
    30    14    15    1
    31    15    17   ar
    32    28    31    1
    33    28    27    1
    34    45    46    1
    35    64    63    2
    36    31    32    1
    37    63    62    1
    38    46    47    1
    39    34    32   ar
    40    34    36   ar
    41    32    33   ar
    42    62    65    1
    43    62    61    1
    44    65    66    1
    45    36    37   ar
    46    47    48    2
    47    47    49   am
    48    61    51   am
    49    33    35   ar
    50    49    50    1
    51    67    66   ar
    52    67    69   ar
    53    66    68   ar
    54    37    35   ar
    55    26    24   am
    56    51    50    1
    57    51    52    2
    58    25    24    2
    59    50    53    1
    60    24    23    1
    61    69    71   ar
    62    68    70   ar
    63    53    54    1
    64    23    22    1
    65    71    70   ar
    66    71    72    1
    67    22    19    1
    68    54    55   ar
    69    54    56   ar
    70    55    57   ar
    71    18    19    1
    72    19    20    1
    73    57    59   ar
    74    56    58   ar
    75    20    21    2
    76    59    58   ar
    77    59    60    1
