@<TRIPOS>MOLECULE
tmp/1zgsB00.pdb
 85 80 0 0 0
SMALL
GASTEIGER

@<TRIPOS>ATOM
      1  N         71.9040   -6.3160   24.8210 N.3    13  GLY13      -0.1210
      2  CA        71.9770   -5.5190   23.6000 C.3    13  GLY13       0.1956
      3  C         70.9180   -5.9060   22.5790 C.2    13  GLY13       0.2612
      4  O         70.0700   -6.7730   22.8290 O.2    13  GLY13      -0.2717
      5  N         70.9580   -5.2550   21.4230 N.am   14  GLY14      -0.1942
      6  CA        69.9840   -5.5000   20.3580 C.3    14  GLY14       0.2014
      7  C         68.6210   -4.8850   20.6350 C.2    14  GLY14       0.2638
      8  O         68.4390   -4.1080   21.5900 O.2    14  GLY14      -0.2714
      9  N         67.6730   -5.2200   19.7700 N.am   15  ASN15      -0.1972
     10  CA        66.3060   -4.7510   19.8690 C.3    15  ASN15       0.1688
     11  C         65.3680   -5.9120   20.1810 C.2    15  ASN15       0.2292
     12  O         65.5360   -7.0290   19.6480 O.2    15  ASN15      -0.2864
     13  CB        65.8830   -4.1400   18.5380 C.3    15  ASN15       0.1181
     14  CG        66.6900   -2.9150   18.1590 C.2    15  ASN15       0.2629
     15  OD1       66.4070   -1.8390   18.6450 O.2    15  ASN15      -0.2716
     16  ND2       67.6520   -3.0640   17.2440 N.am   15  ASN15      -0.0877
     17  N         79.6500   -7.4650    7.3000 N.3    58  ARG58      -0.1245
     18  CA        80.7960   -8.2990    7.0470 C.3    58  ARG58       0.1563
     19  C         80.4000   -9.6420    6.6110 C.2    58  ARG58       0.2260
     20  O         79.6440  -10.4110    7.2030 O.2    58  ARG58      -0.2867
     21  CB        81.6840   -8.3680    8.2720 C.3    58  ARG58       0.0307
     22  CG        82.4130   -7.0620    8.5200 C.3    58  ARG58       0.0489
     23  CD        83.0020   -7.0870    9.9030 C.3    58  ARG58       0.2205
     24  NE        82.0110   -6.8200   10.9480 N.pl3  58  ARG58      -0.0865
     25  CZ        82.1570   -7.1660   12.2240 C.cat  58  ARG58       0.5346
     26  NH1       83.2430   -7.8100   12.6270 N.pl3  58  ARG58       0.1354
     27  NH2       81.2140   -6.8740   13.1020 N.pl3  58  ARG58       0.1354
     28  N         83.1730  -11.4610   20.0580 N.3    88  ASN88      -0.1240
     29  CA        83.6550  -10.1370   19.6100 C.3    88  ASN88       0.1653
     30  C         83.2930   -9.0390   20.6120 C.2    88  ASN88       0.2266
     31  O         82.9240   -7.9520   20.1880 O.2    88  ASN88      -0.2867
     32  CB        82.9870   -9.6910   18.2990 C.3    88  ASN88       0.1155
     33  CG        83.4240  -10.4730   17.0520 C.2    88  ASN88       0.2627
     34  OD1       84.3020  -11.3780   17.0860 O.2    88  ASN88      -0.2716
     35  ND2       82.7740  -10.1090   15.9020 N.am   88  ASN88      -0.0877
     36  N         80.6350   -8.8830   22.7280 N.3    90  VAL90      -0.1245
     37  CA        79.1880   -8.7810   22.9600 C.3    90  VAL90       0.1561
     38  C         78.6030  -10.0390   23.5980 C.2    90  VAL90       0.2260
     39  O         78.8570  -11.1560   23.1300 O.2    90  VAL90      -0.2867
     40  CB        78.4350   -8.5470   21.6530 C.3    90  VAL90       0.0252
     41  CG1       77.0170   -8.2720   21.9490 C.3    90  VAL90       0.0019
     42  CG2       79.0010   -7.3730   20.9210 C.3    90  VAL90       0.0019
     43  N         76.0110  -12.6600   24.0270 N.3    92  VAL92      -0.1245
     44  CA        75.2310  -13.1400   22.9090 C.3    92  VAL92       0.1561
     45  C         74.9560  -14.6490   23.0450 C.2    92  VAL92       0.2260
     46  O         75.6980  -15.3680   23.7520 O.2    92  VAL92      -0.2867
     47  CB        76.0190  -12.8300   21.6460 C.3    92  VAL92       0.0252
     48  CG1       76.4270  -14.0480   20.9160 C.3    92  VAL92       0.0019
     49  CG2       75.3110  -11.8590   20.7920 C.3    92  VAL92       0.0019
     50  N         70.4670   -7.8840   17.0560 N.3   134  GLY134     -0.1210
     51  CA        71.0900   -6.7740   16.3080 C.3   134  GLY134      0.1956
     52  C         71.8070   -7.3710   15.1060 C.2   134  GLY134      0.2612
     53  O         71.1670   -7.8990   14.2050 O.2   134  GLY134     -0.2717
     54  N         73.1360   -7.3250   15.1180 N.am  135  TYR135     -0.1962
     55  CA        73.9530   -8.0730   14.1810 C.3   135  TYR135      0.1771
     56  C         73.7470   -9.5510   14.3910 C.2   135  TYR135      0.2619
     57  O         73.6980  -10.3200   13.4460 O.2   135  TYR135     -0.2715
     58  CB        75.4390   -7.7910   14.4400 C.3   135  TYR135      0.0574
     59  CG        75.9940   -6.5450   13.7920 C.ar  135  TYR135     -0.0198
     60  CD1       75.1590   -5.4940   13.4120 C.ar  135  TYR135     -0.0009
     61  CD2       77.3690   -6.4000   13.6040 C.ar  135  TYR135     -0.0009
     62  CE1       75.6710   -4.3510   12.8300 C.ar  135  TYR135      0.0417
     63  CE2       77.8950   -5.2530   13.0200 C.ar  135  TYR135      0.0417
     64  CZ        77.0330   -4.2390   12.6420 C.ar  135  TYR135      0.1957
     65  OH        77.5300   -3.1040   12.0870 O.3   135  TYR135     -0.2866
     66  N         73.6670   -9.9450   15.6510 N.am  136  TYR136     -0.1974
     67  CA        73.5880  -11.3410   16.0110 C.3   136  TYR136      0.1639
     68  C         72.3540  -11.5720   16.8710 C.2   136  TYR136      0.2290
     69  O         71.5820  -10.6380   17.1260 O.2   136  TYR136     -0.2864
     70  CB        74.8320  -11.7430   16.8110 C.3   136  TYR136      0.0560
     71  CG        76.1270  -11.2380   16.2430 C.ar  136  TYR136     -0.0198
     72  CD1       76.9700  -10.4400   17.0130 C.ar  136  TYR136     -0.0009
     73  CD2       76.5130  -11.5590   14.9230 C.ar  136  TYR136     -0.0009
     74  CE1       78.1860   -9.9730   16.4930 C.ar  136  TYR136      0.0417
     75  CE2       77.7020  -11.0860   14.3840 C.ar  136  TYR136      0.0417
     76  CZ        78.5390  -10.2950   15.1790 C.ar  136  TYR136      0.1957
     77  OH        79.7200   -9.8090   14.6600 O.3   136  TYR136     -0.2866
     78  N         71.3720  -11.6270   20.2400 N.3   138  ASP138     -0.1239
     79  CA        71.8490  -11.3210   21.6050 C.3   138  ASP138      0.1674
     80  C         71.2090  -12.2020   22.6520 C.2   138  ASP138      0.2266
     81  O         71.8910  -12.6080   23.5730 O.2   138  ASP138     -0.2867
     82  CB        71.6350   -9.8740   22.0010 C.3   138  ASP138      0.1410
     83  CG        72.2940   -8.8950   21.0460 C.2   138  ASP138      0.3668
     84  OD1       71.8830   -8.8410   19.8510 O.co2 138  ASP138     -0.2456
     85  OD2       73.2100   -8.1100   21.4200 O.co2 138  ASP138     -0.2456
@<TRIPOS>BOND
     1    19    18    1
     2    19    20    2
     3    18    17    1
     4    18    21    1
     5    21    22    1
     6    22    23    1
     7    23    24    1
     8    24    25    2
     9    65    64    1
    10    25    26    1
    11    25    27    1
    12    64    62   ar
    13    64    63   ar
    14    62    60   ar
    15    63    61   ar
    16    60    59   ar
    17    57    56    2
    18    61    59   ar
    19    59    58    1
    20    55    56    1
    21    55    58    1
    22    55    54    1
    23    53    52    2
    24    75    73   ar
    25    75    76   ar
    26    56    66   am
    27    77    76    1
    28    73    71   ar
    29    52    54   am
    30    52    51    1
    31    76    74   ar
    32    66    67    1
    33    35    33   am
    34    67    70    1
    35    67    68    1
    36    71    70    1
    37    71    72   ar
    38    51    50    1
    39    74    72   ar
    40    68    69    2
    41    33    34    2
    42    33    32    1
    43    16    14   am
    44    14    13    1
    45    14    15    2
    46    32    29    1
    47    13    10    1
    48    29    28    1
    49    29    30    1
    50    12    11    2
    51     9    10    1
    52     9     7   am
    53    84    83   ar
    54    10    11    1
    55    31    30    2
    56    78    79    1
    57     6     7    1
    58     6     5    1
    59     7     8    2
    60    49    47    1
    61    48    47    1
    62    42    40    1
    63    83    85   ar
    64    83    82    1
    65     5     3   am
    66    79    82    1
    67    79    80    1
    68    47    44    1
    69    40    41    1
    70    40    37    1
    71     3     4    2
    72     3     2    1
    73    80    81    2
    74    36    37    1
    75    44    45    1
    76    44    43    1
    77    37    38    1
    78    45    46    2
    79    39    38    2
    80     2     1    1
