@<TRIPOS>MOLECULE
tmp/1zgvA01.pdb
 180 180 0 0 0
SMALL
GASTEIGER

@<TRIPOS>ATOM
      1  N         22.5020   -7.0450   18.6300 N.3    69  HIS69      -0.1241
      2  CA        22.3690   -8.4110   18.1630 C.3    69  HIS69       0.1621
      3  C         21.5840   -8.5800   16.8660 C.2    69  HIS69       0.2264
      4  O         21.5270   -9.6780   16.3110 O.2    69  HIS69      -0.2867
      5  CB        21.8100   -9.3120   19.2770 C.3    69  HIS69       0.0745
      6  CG        20.3210   -9.3820   19.3250 C.ar   69  HIS69       0.0817
      7  ND1       19.5690   -8.6110   20.1850 N.ar   69  HIS69      -0.2268
      8  CD2       19.4430  -10.1720   18.6610 C.ar   69  HIS69       0.1154
      9  CE1       18.2940   -8.9300   20.0580 C.ar   69  HIS69       0.1986
     10  NE2       18.1910   -9.8740   19.1400 N.ar   69  HIS69      -0.2212
     11  N         25.8560  -11.1800   15.5720 N.3    73  TYR73      -0.1241
     12  CA        25.6290  -12.2940   16.4840 C.3    73  TYR73       0.1605
     13  C         26.3260  -13.5490   15.9580 C.2    73  TYR73       0.2264
     14  O         25.7050  -14.4030   15.3200 O.2    73  TYR73      -0.2867
     15  CB        24.1340  -12.5770   16.6670 C.3    73  TYR73       0.0534
     16  CG        23.8580  -13.5000   17.8340 C.ar   73  TYR73      -0.0201
     17  CD1       24.2250  -13.1390   19.1230 C.ar   73  TYR73      -0.0009
     18  CD2       23.2580  -14.7370   17.6490 C.ar   73  TYR73      -0.0009
     19  CE1       24.0080  -13.9760   20.1970 C.ar   73  TYR73       0.0417
     20  CE2       23.0320  -15.5950   18.7270 C.ar   73  TYR73       0.0417
     21  CZ        23.4140  -15.2040   20.0010 C.ar   73  TYR73       0.1957
     22  OH        23.2290  -16.0400   21.0840 O.3    73  TYR73      -0.2866
     23  N         25.0010  -17.3420   15.3580 N.3    76  TRP76      -0.1241
     24  CA        24.1520  -17.6810   14.2110 C.3    76  TRP76       0.1605
     25  C         24.7760  -17.1360   12.9210 C.2    76  TRP76       0.2264
     26  O         24.0860  -16.9500   11.9170 O.2    76  TRP76      -0.2867
     27  CB        22.7390  -17.0920   14.3570 C.3    76  TRP76       0.0550
     28  CG        21.9290  -17.5810   15.5360 C.ar   76  TRP76       0.0003
     29  CD1       22.1470  -18.7090   16.2820 C.ar   76  TRP76       0.0946
     30  CD2       20.7430  -16.9710   16.0760 C.ar   76  TRP76       0.0152
     31  NE1       21.1740  -18.8360   17.2520 N.ar   76  TRP76      -0.2442
     32  CE2       20.3020  -17.7830   17.1470 C.ar   76  TRP76       0.0810
     33  CE3       20.0150  -15.8180   15.7620 C.ar   76  TRP76       0.0012
     34  CZ2       19.1610  -17.4770   17.9000 C.ar   76  TRP76       0.0191
     35  CZ3       18.8830  -15.5110   16.5080 C.ar   76  TRP76       0.0001
     36  CH2       18.4670  -16.3360   17.5680 C.ar   76  TRP76       0.0015
     37  N         27.8490  -14.0070   26.2280 N.3   120  GLU120     -0.1231
     38  CA        27.1390  -14.4820   27.4070 C.3   120  GLU120      0.1699
     39  C         25.6630  -14.1150   27.6140 C.2   120  GLU120      0.2592
     40  O         24.7950  -14.9930   27.5880 O.2   120  GLU120     -0.2718
     41  CB        27.9290  -14.0590   28.6400 C.3   120  GLU120      0.0402
     42  CG        27.5330  -14.7600   29.9100 C.3   120  GLU120      0.1161
     43  CD        28.0240  -14.0130   31.1240 C.2   120  GLU120      0.3649
     44  OE1       29.0710  -13.3340   31.0060 O.co2 120  GLU120     -0.2457
     45  OE2       27.3760  -14.1010   32.1940 O.co2 120  GLU120     -0.2457
     46  N         25.3740  -12.8330   27.8310 N.am  121  ASN121     -0.1960
     47  CA        23.9960  -12.4130   28.1010 C.3   121  ASN121      0.1819
     48  C         23.4610  -11.2130   27.3170 C.2   121  ASN121      0.2621
     49  O         22.4760  -10.6050   27.7310 O.2   121  ASN121     -0.2715
     50  CB        23.8750  -12.1120   29.5900 C.3   121  ASN121      0.1195
     51  CG        24.9210  -11.1180   30.0540 C.2   121  ASN121      0.2630
     52  OD1       25.6300  -10.5200   29.2370 O.2   121  ASN121     -0.2716
     53  ND2       25.0250  -10.9290   31.3630 N.am  121  ASN121     -0.0877
     54  N         24.0980  -10.8700   26.2050 N.am  122  LEU122     -0.1977
     55  CA        23.6720   -9.7270   25.3970 C.3   122  LEU122      0.1596
     56  C         23.7260   -8.4150   26.1760 C.2   122  LEU122      0.2287
     57  O         22.8710   -7.5480   26.0010 O.2   122  LEU122     -0.2864
     58  CB        22.2460   -9.9340   24.8560 C.3   122  LEU122      0.0297
     59  CG        22.0430  -11.0830   23.8710 C.3   122  LEU122      0.0022
     60  CD1       20.6760  -10.9460   23.2030 C.3   122  LEU122      0.0001
     61  CD2       23.1470  -11.0410   22.8290 C.3   122  LEU122      0.0001
     62  N         20.2090  -16.9340   33.3020 N.3   197  ILE197     -0.1245
     63  CA        21.0980  -15.9340   32.7190 C.3   197  ILE197      0.1561
     64  C         21.4840  -14.8710   33.7390 C.2   197  ILE197      0.2260
     65  O         20.6660  -14.4540   34.5590 O.2   197  ILE197     -0.2867
     66  CB        20.4240  -15.2140   31.5250 C.3   197  ILE197      0.0252
     67  CG1       19.8420  -16.2460   30.5440 C.3   197  ILE197      0.0019
     68  CG2       21.4330  -14.3250   30.8130 C.3   197  ILE197      0.0019
     69  CD1       20.8900  -17.0470   29.7900 C.3   197  ILE197      0.0001
     70  N          3.7870   -9.9420   25.2570 N.3   217  ASP217     -0.1225
     71  CA         5.2390   -9.9740   25.2280 C.3   217  ASP217      0.1805
     72  C          5.7190   -9.6730   23.8120 C.2   217  ASP217      0.2598
     73  O          4.9300   -9.6500   22.8610 O.2   217  ASP217     -0.2718
     74  CB         5.7040  -11.3820   25.6420 C.3   217  ASP217      0.1424
     75  CG         7.2010  -11.4720   25.9100 C.2   217  ASP217      0.3668
     76  OD1        7.6960  -12.6080   26.1020 O.co2 217  ASP217     -0.2456
     77  OD2        7.8820  -10.4270   25.9410 O.co2 217  ASP217     -0.2456
     78  N          7.0140   -9.4210   23.6830 N.am  218  ALA218     -0.1966
     79  CA         7.6200   -9.1990   22.3800 C.3   218  ALA218      0.1728
     80  C          7.9900  -10.6160   21.9340 C.2   218  ALA218      0.2616
     81  O          7.8990  -11.5570   22.7240 O.2   218  ALA218     -0.2715
     82  CB         8.8770   -8.3510   22.5180 C.3   218  ALA218      0.0334
     83  N          8.4160  -10.7700   20.6890 N.am  219  CYS219     -0.1954
     84  CA         8.7890  -12.0810   20.1870 C.3   219  CYS219      0.1843
     85  C          9.7680  -11.8650   19.0350 C.2   219  CYS219      0.2625
     86  O         10.1090  -10.7170   18.7180 O.2   219  CYS219     -0.2714
     87  CB         7.5400  -12.8360   19.7120 C.3   219  CYS219      0.0997
     88  SG         7.7020  -14.6530   19.6550 S.3   219  CYS219     -0.0797
     89  N         10.2410  -12.9620   18.4390 N.am  220  GLU220     -0.1977
     90  CA        11.1840  -12.8840   17.3290 C.3   220  GLU220      0.1602
     91  C         10.6690  -11.8920   16.2830 C.2   220  GLU220      0.2287
     92  O          9.4930  -11.9180   15.9270 O.2   220  GLU220     -0.2864
     93  CB        11.3760  -14.2650   16.6930 C.3   220  GLU220      0.0415
     94  CG        11.7620  -15.3610   17.7060 C.3   220  GLU220      0.1163
     95  CD        12.2760  -16.6440   17.0430 C.2   220  GLU220      0.3649
     96  OE1       12.4500  -17.6680   17.7490 O.co2 220  GLU220     -0.2457
     97  OE2       12.5150  -16.6250   15.8130 O.co2 220  GLU220     -0.2457
     98  N         12.7900   -7.6640   18.1780 N.3   223  SER223     -0.1217
     99  CA        14.0900   -7.2140   18.6980 C.3   223  SER223      0.1889
    100  C         14.5410   -5.9300   18.0450 C.2   223  SER223      0.2288
    101  O         14.3310   -5.7250   16.8490 O.2   223  SER223     -0.2866
    102  CB        15.1840   -8.2720   18.4680 C.3   223  SER223      0.2089
    103  OG        15.0120   -9.3950   19.3100 O.3   223  SER223     -0.2183
    104  N         14.0580   -3.5990   22.8410 N.3   243  VAL243     -0.1231
    105  CA        13.7090   -5.0100   22.9340 C.3   243  VAL243      0.1692
    106  C         15.0010   -5.7910   22.7180 C.2   243  VAL243      0.2593
    107  O         15.6090   -5.7030   21.6550 O.2   243  VAL243     -0.2718
    108  CB        12.6900   -5.4050   21.8460 C.3   243  VAL243      0.0266
    109  CG1       12.2990   -6.8700   22.0060 C.3   243  VAL243      0.0020
    110  CG2       11.4690   -4.5120   21.9330 C.3   243  VAL243      0.0020
    111  N         15.4270   -6.5430   23.7280 N.am  244  SER244     -0.1938
    112  CA        16.6700   -7.2970   23.6130 C.3   244  SER244      0.2055
    113  C         16.4730   -8.8050   23.4800 C.2   244  SER244      0.2643
    114  O         16.6430   -9.3500   22.3910 O.2   244  SER244     -0.2714
    115  CB        17.5850   -6.9960   24.8060 C.3   244  SER244      0.2130
    116  OG        18.8650   -7.5510   24.6060 O.3   244  SER244     -0.2179
    117  N         16.1130   -9.4830   24.5670 N.am  245  TRP245     -0.1959
    118  CA        15.9220  -10.9290   24.5030 C.3   245  TRP245      0.1771
    119  C         14.8280  -11.4400   25.4280 C.2   245  TRP245      0.2620
    120  O         14.3140  -10.7160   26.2810 O.2   245  TRP245     -0.2715
    121  CB        17.2390  -11.6740   24.8160 C.3   245  TRP245      0.0590
    122  CG        17.8500  -11.3610   26.1710 C.ar  245  TRP245      0.0006
    123  CD1       18.6360  -10.2860   26.4870 C.ar  245  TRP245      0.0946
    124  CD2       17.6840  -12.1040   27.3910 C.ar  245  TRP245      0.0152
    125  NE1       18.9650  -10.3100   27.8200 N.ar  245  TRP245     -0.2442
    126  CE2       18.3940  -11.4150   28.4010 C.ar  245  TRP245      0.0810
    127  CE3       17.0040  -13.2770   27.7290 C.ar  245  TRP245      0.0012
    128  CZ2       18.4420  -11.8620   29.7250 C.ar  245  TRP245      0.0191
    129  CZ3       17.0510  -13.7220   29.0470 C.ar  245  TRP245      0.0001
    130  CH2       17.7640  -13.0150   30.0260 C.ar  245  TRP245      0.0015
    131  N         14.4790  -12.7030   25.2440 N.am  246  GLY246     -0.1940
    132  CA        13.4650  -13.3260   26.0690 C.3   246  GLY246      0.2014
    133  C         13.5860  -14.8290   25.9030 C.2   246  GLY246      0.2639
    134  O         14.1560  -15.2940   24.9090 O.2   246  GLY246     -0.2714
    135  N         13.0770  -15.5930   26.8630 N.am  247  GLU247     -0.1963
    136  CA        13.1340  -17.0450   26.7760 C.3   247  GLU247      0.1733
    137  C         11.7440  -17.4670   26.3190 C.2   247  GLU247      0.2617
    138  O         10.8250  -17.6240   27.1290 O.2   247  GLU247     -0.2715
    139  CB        13.4650  -17.6220   28.1490 C.3   247  GLU247      0.0429
    140  CG        14.6300  -16.8920   28.8060 C.3   247  GLU247      0.1163
    141  CD        14.8100  -17.2230   30.2700 C.2   247  GLU247      0.3649
    142  OE1       15.3170  -18.3210   30.5730 O.co2 247  GLU247     -0.2457
    143  OE2       14.4360  -16.3800   31.1160 O.co2 247  GLU247     -0.2457
    144  N         11.5980  -17.6460   25.0110 N.am  248  GLY248     -0.1940
    145  CA        10.2990  -17.9950   24.4740 C.3   248  GLY248      0.2014
    146  C          9.4910  -16.7120   24.3620 C.2   248  GLY248      0.2639
    147  O         10.0490  -15.6180   24.4830 O.2   248  GLY248     -0.2714
    148  N          8.1870  -16.8260   24.1310 N.am  249  CYS249     -0.1967
    149  CA         7.3530  -15.6370   24.0060 C.3   249  CYS249      0.1712
    150  C          6.0770  -15.7600   24.8180 C.2   249  CYS249      0.2296
    151  O          5.2940  -16.6890   24.6310 O.2   249  CYS249     -0.2864
    152  CB         7.0060  -15.3760   22.5350 C.3   249  CYS249      0.0983
    153  SG         8.4670  -15.1190   21.4750 S.3   249  CYS249     -0.0798
    154  N         10.2650  -10.3860   29.3560 N.3   256  GLY256     -0.1210
    155  CA        11.1100   -9.8890   28.2950 C.3   256  GLY256      0.1956
    156  C         12.1930   -9.0150   28.8940 C.2   256  GLY256      0.2612
    157  O         11.9640   -8.3480   29.9000 O.2   256  GLY256     -0.2717
    158  N         13.3740   -9.0310   28.2900 N.am  257  PHE257     -0.1962
    159  CA        14.4760   -8.2170   28.7790 C.3   257  PHE257      0.1771
    160  C         14.8050   -7.1100   27.7980 C.2   257  PHE257      0.2619
    161  O         14.8250   -7.3120   26.5800 O.2   257  PHE257     -0.2715
    162  CB        15.6980   -9.0950   29.0840 C.3   257  PHE257      0.0574
    163  CG        15.5670   -9.8560   30.3720 C.ar  257  PHE257     -0.0200
    164  CD1       14.7630  -10.9800   30.4580 C.ar  257  PHE257     -0.0042
    165  CD2       16.1820   -9.3950   31.5230 C.ar  257  PHE257     -0.0042
    166  CE1       14.5700  -11.6290   31.6760 C.ar  257  PHE257     -0.0003
    167  CE2       15.9950  -10.0350   32.7360 C.ar  257  PHE257     -0.0003
    168  CZ        15.1860  -11.1520   32.8110 C.ar  257  PHE257     -0.0000
    169  N         15.0570   -5.9240   28.3430 N.am  258  TYR258     -0.1974
    170  CA        15.3260   -4.7540   27.5200 C.3   258  TYR258      0.1639
    171  C         16.6190   -4.0320   27.8610 C.2   258  TYR258      0.2290
    172  O         17.0220   -3.9820   29.0120 O.2   258  TYR258     -0.2864
    173  CB        14.1590   -3.7540   27.6640 C.3   258  TYR258      0.0560
    174  CG        12.8000   -4.3230   27.3180 C.ar  258  TYR258     -0.0198
    175  CD1       12.1430   -5.2050   28.1740 C.ar  258  TYR258     -0.0009
    176  CD2       12.2070   -4.0370   26.0930 C.ar  258  TYR258     -0.0009
    177  CE1       10.9360   -5.7850   27.8020 C.ar  258  TYR258      0.0417
    178  CE2       11.0190   -4.6050   25.7220 C.ar  258  TYR258      0.0417
    179  CZ        10.3860   -5.4770   26.5700 C.ar  258  TYR258      0.1957
    180  OH         9.2110   -6.0310   26.1410 O.3   258  TYR258     -0.2866
@<TRIPOS>BOND
     1    26    25    2
     2    25    24    1
     3    24    27    1
     4    24    23    1
     5    27    28    1
     6    14    13    2
     7    28    30   ar
     8    28    29   ar
     9    11    12    1
    10    33    30   ar
    11    33    35   ar
    12    97    95   ar
    13    92    91    2
    14    13    12    1
    15    30    32   ar
    16    29    31   ar
    17    91    90    1
    18     4     3    2
    19    12    15    1
    20    35    36   ar
    21    15    16    1
    22    93    90    1
    23    93    94    1
    24   101   100    2
    25     3     2    1
    26    95    94    1
    27    95    96   ar
    28    32    31   ar
    29    32    34   ar
    30    90    89    1
    31    36    34   ar
    32    18    16   ar
    33    18    20   ar
    34    16    17   ar
    35   100    99    1
    36     2     1    1
    37     2     5    1
    38    98    99    1
    39    89    85   am
    40   102    99    1
    41   102   103    1
    42     8    10   ar
    43     8     6   ar
    44    86    85    2
    45    20    21   ar
    46    85    84    1
    47    17    19   ar
    48    10     9   ar
    49     5     6    1
    50     6     7   ar
    51    88    87    1
    52    88   153    1
    53    87    84    1
    54    21    19   ar
    55    21    22    1
    56     9     7   ar
    57    84    83    1
    58    83    80   am
    59   153   152    1
    60   107   106    2
    61   108   110    1
    62   108   109    1
    63   108   105    1
    64    80    79    1
    65    80    81    2
    66    79    82    1
    67    79    78    1
    68   114   113    2
    69   152   149    1
    70   106   105    1
    71   106   111   am
    72    61    59    1
    73   104   105    1
    74    73    72    2
    75    60    59    1
    76   113   112    1
    77   113   117   am
    78   112   111    1
    79   112   115    1
    80    78    72   am
    81    72    71    1
    82    59    58    1
    83   149   148    1
    84   149   150    1
    85   148   146   am
    86   146   145    1
    87   146   147    2
    88   145   144    1
    89   118   117    1
    90   118   121    1
    91   118   119    1
    92   116   115    1
    93   151   150    2
    94   121   122    1
    95    58    55    1
    96   134   133    2
    97   144   137   am
    98    71    70    1
    99    71    74    1
   100   131   119   am
   101   131   132    1
   102    55    56    1
   103    55    54    1
   104   119   120    2
   105    74    75    1
   106   178   176   ar
   107   178   179   ar
   108   133   132    1
   109   133   135   am
   110    75    77   ar
   111    75    76   ar
   112    57    56    2
   113   176   174   ar
   114   180   179    1
   115   122   123   ar
   116   122   124   ar
   117    54    48   am
   118    37    38    1
   119   137   136    1
   120   137   138    2
   121   123   125   ar
   122   179   177   ar
   123   161   160    2
   124   136   135    1
   125   136   139    1
   126    48    49    2
   127    48    47    1
   128   174   173    1
   129   174   175   ar
   130   124   127   ar
   131   124   126   ar
   132    38    39    1
   133    38    41    1
   134   170   173    1
   135   170   171    1
   136   170   169    1
   137    40    39    2
   138    39    46   am
   139   127   129   ar
   140   160   169   am
   141   160   159    1
   142   177   175   ar
   143   125   126   ar
   144    46    47    1
   145   171   172    2
   146    47    50    1
   147   139   140    1
   148   158   159    1
   149   158   156   am
   150   155   156    1
   151   155   154    1
   152   126   128   ar
   153    41    42    1
   154   159   162    1
   155   140   141    1
   156   156   157    2
   157   129   130   ar
   158   162   163    1
   159    52    51    2
   160    50    51    1
   161   128   130   ar
   162    69    67    1
   163    42    43    1
   164    51    53   am
   165   141   142   ar
   166   141   143   ar
   167   163   164   ar
   168   163   165   ar
   169   164   166   ar
   170    67    66    1
   171    68    66    1
   172    44    43   ar
   173    43    45   ar
   174   165   167   ar
   175    66    63    1
   176   166   168   ar
   177    63    62    1
   178    63    64    1
   179   167   168   ar
   180    64    65    2
