@<TRIPOS>MOLECULE
tmp/1zgyA00.pdb
 157 150 0 0 0
SMALL
GASTEIGER

@<TRIPOS>ATOM
      1  N         26.4770   -5.7010   19.4020 N.3    88  VAL88      -0.1231
      2  CA        26.9140   -6.8960   18.6800 C.3    88  VAL88       0.1692
      3  C         25.7730   -7.4560   17.8360 C.2    88  VAL88       0.2591
      4  O         25.9850   -7.9250   16.7170 O.2    88  VAL88      -0.2718
      5  CB        27.4240   -7.9850   19.6520 C.3    88  VAL88       0.0266
      6  CG1       27.5880   -9.3140   18.9180 C.3    88  VAL88       0.0020
      7  CG2       28.7570   -7.5490   20.2480 C.3    88  VAL88       0.0020
      8  N         24.5610   -7.4010   18.3710 N.am   89  GLN89      -0.1979
      9  CA        23.4110   -7.9040   17.6470 C.3    89  GLN89       0.1601
     10  C         23.0180   -7.0100   16.4690 C.2    89  GLN89       0.2287
     11  O         22.5990   -7.5120   15.4230 O.2    89  GLN89      -0.2864
     12  CB        22.2600   -8.1170   18.6220 C.3    89  GLN89       0.0394
     13  CG        22.6530   -9.1450   19.6820 C.3    89  GLN89       0.0908
     14  CD        21.5780   -9.3860   20.7060 C.2    89  GLN89       0.2608
     15  OE1       20.6070  -10.0990   20.4520 O.2    89  GLN89      -0.2717
     16  NE2       21.7390   -8.7840   21.8760 N.am   89  GLN89      -0.0878
     17  N         25.6360   -7.7290   13.8390 N.3    92  THR92      -0.1203
     18  CA        25.4500   -9.0370   13.2060 C.3    92  THR92       0.1994
     19  C         24.3500   -8.9370   12.1490 C.2    92  THR92       0.2617
     20  O         24.4740   -9.4650   11.0340 O.2    92  THR92      -0.2717
     21  CB        25.0550  -10.1060   14.2500 C.3    92  THR92       0.1784
     22  OG1       26.0970  -10.2050   15.2310 O.3    92  THR92      -0.2211
     23  CG2       24.8630  -11.4670   13.5790 C.3    92  THR92       0.0376
     24  N         23.2750   -8.2490   12.5090 N.am   93  GLU93      -0.1979
     25  CA        22.1610   -8.0390   11.5950 C.3    93  GLU93       0.1602
     26  C         22.7000   -7.3390   10.3470 C.2    93  GLU93       0.2287
     27  O         22.3890   -7.7160    9.2180 O.2    93  GLU93      -0.2864
     28  CB        21.1030   -7.1490   12.2470 C.3    93  GLU93       0.0415
     29  CG        19.7430   -7.7980   12.3890 C.3    93  GLU93       0.1163
     30  CD        18.6580   -6.7880   12.6920 C.2    93  GLU93       0.3649
     31  OE1       18.7060   -6.1660   13.7740 O.co2  93  GLU93      -0.2457
     32  OE2       17.7580   -6.6110   11.8410 O.co2  93  GLU93      -0.2457
     33  N         24.9510   -9.5870    8.0620 N.3    96  LYS96      -0.1245
     34  CA        24.1600  -10.5310    7.2870 C.3    96  LYS96       0.1561
     35  C         23.5310   -9.8720    6.0610 C.2    96  LYS96       0.2260
     36  O         23.0600  -10.5580    5.1590 O.2    96  LYS96      -0.2867
     37  CB        23.0890  -11.1630    8.1800 C.3    96  LYS96       0.0271
     38  CG        23.6480  -12.2090    9.1450 C.3    96  LYS96       0.0035
     39  CD        22.7410  -12.4650   10.3480 C.3    96  LYS96       0.0206
     40  CE        21.5090  -13.2870   10.0090 C.3    96  LYS96       0.1093
     41  NZ        20.7540  -13.6160   11.2640 N.3    96  LYS96      -0.1314
     42  N         27.9150  -12.4180    2.4390 N.3   101  PHE101     -0.1227
     43  CA        28.2880  -12.7940    3.7990 C.3   101  PHE101      0.1736
     44  C         27.6480  -14.0810    4.3070 C.2   101  PHE101      0.2595
     45  O         28.3380  -14.9560    4.8190 O.2   101  PHE101     -0.2718
     46  CB        27.9600  -11.6570    4.7820 C.3   101  PHE101      0.0547
     47  CG        28.4400  -11.9070    6.1900 C.ar  101  PHE101     -0.0202
     48  CD1       29.7350  -11.5600    6.5730 C.ar  101  PHE101     -0.0042
     49  CD2       27.6120  -12.5110    7.1220 C.ar  101  PHE101     -0.0042
     50  CE1       30.1940  -11.8130    7.8620 C.ar  101  PHE101     -0.0003
     51  CE2       28.0610  -12.7720    8.4210 C.ar  101  PHE101     -0.0003
     52  CZ        29.3550  -12.4230    8.7910 C.ar  101  PHE101     -0.0000
     53  N         26.3290  -14.2060    4.1800 N.am  102  VAL102     -0.1980
     54  CA        25.6680  -15.4030    4.7000 C.3   102  VAL102      0.1595
     55  C         26.0360  -16.6810    3.9480 C.2   102  VAL102      0.2287
     56  O         25.7720  -17.7760    4.4360 O.2   102  VAL102     -0.2864
     57  CB        24.1330  -15.2340    4.7200 C.3   102  VAL102      0.0276
     58  CG1       23.7640  -14.0310    5.6120 C.3   102  VAL102      0.0022
     59  CG2       23.6200  -15.0230    3.3090 C.3   102  VAL102      0.0022
     60  N         30.0320  -20.8270    7.7990 N.3   106  LEU106     -0.1231
     61  CA        29.5050  -20.3130    9.0600 C.3   106  LEU106      0.1693
     62  C         30.5790  -20.0400   10.1110 C.2   106  LEU106      0.2592
     63  O         30.4860  -19.0640   10.8620 O.2   106  LEU106     -0.2718
     64  CB        28.4510  -21.2790    9.6240 C.3   106  LEU106      0.0284
     65  CG        27.6320  -20.7890   10.8320 C.3   106  LEU106      0.0019
     66  CD1       26.8540  -19.5290   10.4550 C.3   106  LEU106      0.0001
     67  CD2       26.6770  -21.8870   11.2860 C.3   106  LEU106      0.0001
     68  N         31.5890  -20.9010   10.1850 N.am  107  ASN107     -0.1974
     69  CA        32.6510  -20.6920   11.1600 C.3   107  ASN107      0.1688
     70  C         33.4410  -19.4290   10.8410 C.2   107  ASN107      0.2292
     71  O         33.8690  -18.7210   11.7510 O.2   107  ASN107     -0.2864
     72  CB        33.5760  -21.9070   11.2150 C.3   107  ASN107      0.1181
     73  CG        32.9100  -23.1010   11.8550 C.2   107  ASN107      0.2629
     74  OD1       32.5250  -23.0530   13.0200 O.2   107  ASN107     -0.2716
     75  ND2       32.7570  -24.1790   11.0920 N.am  107  ASN107     -0.0877
     76  N         32.1680  -16.8320    9.4140 N.3   109  GLN109     -0.1231
     77  CA        31.2570  -15.7310    9.7430 C.3   109  GLN109      0.1698
     78  C         31.4310  -15.4010   11.2230 C.2   109  GLN109      0.2592
     79  O         31.5350  -14.2350   11.6030 O.2   109  GLN109     -0.2718
     80  CB        29.8020  -16.1330    9.4940 C.3   109  GLN109      0.0381
     81  CG        29.4010  -16.1970    8.0290 C.3   109  GLN109      0.0905
     82  CD        27.9620  -16.6290    7.8660 C.2   109  GLN109      0.2608
     83  OE1       27.0520  -16.0540    8.4740 O.2   109  GLN109     -0.2717
     84  NE2       27.7430  -17.6450    7.0500 N.am  109  GLN109     -0.0878
     85  N         31.4580  -16.4450   12.0500 N.am  110  VAL110     -0.1980
     86  CA        31.6420  -16.2950   13.4870 C.3   110  VAL110      0.1595
     87  C         32.9660  -15.5840   13.7440 C.2   110  VAL110      0.2287
     88  O         33.0320  -14.6290   14.5190 O.2   110  VAL110     -0.2864
     89  CB        31.6910  -17.6720   14.1970 C.3   110  VAL110      0.0276
     90  CG1       32.1930  -17.5060   15.6380 C.3   110  VAL110      0.0022
     91  CG2       30.3100  -18.3110   14.1910 C.3   110  VAL110      0.0022
     92  N         32.9910  -11.8130   12.8550 N.3   113  LEU113     -0.1231
     93  CA        32.2800  -11.0280   13.8590 C.3   113  LEU113      0.1693
     94  C         33.0980  -10.9440   15.1420 C.2   113  LEU113      0.2591
     95  O         33.2720   -9.8690   15.7140 O.2   113  LEU113     -0.2718
     96  CB        30.9220  -11.6590   14.1630 C.3   113  LEU113      0.0284
     97  CG        29.8550  -11.4920   13.0840 C.3   113  LEU113      0.0019
     98  CD1       28.5680  -12.1840   13.5180 C.3   113  LEU113      0.0001
     99  CD2       29.6120  -10.0070   12.8600 C.3   113  LEU113      0.0001
    100  N         33.6000  -12.0910   15.5840 N.am  114  LYS114     -0.1980
    101  CA        34.3970  -12.1750   16.8030 C.3   114  LYS114      0.1596
    102  C         35.5060  -11.1300   16.8210 C.2   114  LYS114      0.2287
    103  O         35.6880  -10.4180   17.8120 O.2   114  LYS114     -0.2864
    104  CB        35.0090  -13.5750   16.9260 C.3   114  LYS114      0.0298
    105  CG        35.9570  -13.7550   18.1060 C.3   114  LYS114      0.0038
    106  CD        36.6650  -15.1040   18.0250 C.3   114  LYS114      0.0206
    107  CE        37.5200  -15.3710   19.2480 C.3   114  LYS114      0.1093
    108  NZ        36.6930  -15.5610   20.4670 N.3   114  LYS114     -0.1314
    109  N         33.5450   -7.0600   15.6890 N.3   117  VAL117     -0.1245
    110  CA        32.5820   -6.2680   16.4560 C.3   117  VAL117      0.1561
    111  C         33.0980   -5.1140   17.3090 C.2   117  VAL117      0.2260
    112  O         32.4850   -4.0430   17.3180 O.2   117  VAL117     -0.2867
    113  CB        31.6650   -7.1670   17.3300 C.3   117  VAL117      0.0252
    114  CG1       30.7430   -7.9760   16.4320 C.3   117  VAL117      0.0019
    115  CG2       32.4930   -8.0840   18.2170 C.3   117  VAL117      0.0019
    116  N         29.5890  -10.4560   30.7060 N.3   261  HIS261     -0.1227
    117  CA        28.4130  -10.9940   30.0260 C.3   261  HIS261      0.1737
    118  C         28.8600  -12.1560   29.1330 C.2   261  HIS261      0.2438
    119  O         29.8870  -12.0720   28.4710 O.2   261  HIS261     -0.2733
    120  CB        27.7560   -9.8950   29.1930 C.3   261  HIS261      0.0758
    121  CG        26.4650  -10.3050   28.5580 C.ar  261  HIS261      0.0818
    122  ND1       26.4010  -11.1950   27.5090 N.ar  261  HIS261     -0.2268
    123  CD2       25.1890   -9.9360   28.8170 C.ar  261  HIS261      0.1154
    124  CE1       25.1400  -11.3560   27.1470 C.ar  261  HIS261      0.1986
    125  NE2       24.3850  -10.6040   27.9260 N.ar  261  HIS261     -0.2212
    126  N         28.0910  -13.2570   29.1110 N.am  262  PRO262     -0.2718
    127  CA        28.4030  -14.4470   28.3110 C.3   262  PRO262      0.1535
    128  C         28.8070  -14.1760   26.8600 C.2   262  PRO262      0.2598
    129  O         29.7390  -14.7980   26.3370 O.2   262  PRO262     -0.2715
    130  CB        27.1230  -15.2720   28.4160 C.3   262  PRO262      0.0310
    131  CG        26.5930  -14.8960   29.7580 C.3   262  PRO262      0.0237
    132  CD        26.7830  -13.4100   29.7740 C.3   262  PRO262      0.0939
    133  N         28.1090  -13.2560   26.2010 N.am  263  LEU263     -0.1978
    134  CA        28.4390  -12.9430   24.8200 C.3   263  LEU263      0.1596
    135  C         29.8160  -12.2940   24.7440 C.2   263  LEU263      0.2287
    136  O         30.5920  -12.5820   23.8350 O.2   263  LEU263     -0.2864
    137  CB        27.3810  -12.0210   24.2100 C.3   263  LEU263      0.0297
    138  CG        27.5900  -11.6030   22.7510 C.3   263  LEU263      0.0022
    139  CD1       27.8240  -12.8300   21.8650 C.3   263  LEU263      0.0001
    140  CD2       26.3600  -10.8340   22.2790 C.3   263  LEU263      0.0001
    141  N         32.5740  -14.9440   25.3010 N.3   266  GLU266     -0.1231
    142  CA        32.7880  -15.6840   24.0630 C.3   266  GLU266      0.1699
    143  C         33.6440  -14.9060   23.0690 C.2   266  GLU266      0.2592
    144  O         34.5790  -15.4500   22.4860 O.2   266  GLU266     -0.2718
    145  CB        31.4350  -16.0290   23.4290 C.3   266  GLU266      0.0402
    146  CG        31.5180  -16.5130   21.9980 C.3   266  GLU266      0.1161
    147  CD        30.1810  -17.0010   21.4760 C.2   266  GLU266      0.3649
    148  OE1       30.0250  -17.0900   20.2420 O.co2 266  GLU266     -0.2457
    149  OE2       29.2920  -17.3070   22.3020 O.co2 266  GLU266     -0.2457
    150  N         33.3210  -13.6310   22.8790 N.am  267  ILE267     -0.1980
    151  CA        34.0610  -12.7890   21.9530 C.3   267  ILE267      0.1595
    152  C         35.5130  -12.5810   22.3880 C.2   267  ILE267      0.2287
    153  O         36.4310  -12.6950   21.5790 O.2   267  ILE267     -0.2864
    154  CB        33.3640  -11.4170   21.7940 C.3   267  ILE267      0.0276
    155  CG1       32.0470  -11.5980   21.0220 C.3   267  ILE267      0.0022
    156  CG2       34.2870  -10.4390   21.0760 C.3   267  ILE267      0.0022
    157  CD1       31.1500  -10.3640   21.0060 C.3   267  ILE267      0.0001
@<TRIPOS>BOND
     1    42    43    1
     2    59    57    1
     3    43    44    1
     4    43    46    1
     5    55    56    2
     6    55    54    1
     7    53    44   am
     8    53    54    1
     9    44    45    2
    10    54    57    1
    11    57    58    1
    12    46    47    1
    13    36    35    2
    14    35    34    1
    15    47    48   ar
    16    47    49   ar
    17    48    50   ar
    18    84    82   am
    19    49    51   ar
    20    34    33    1
    21    34    37    1
    22    60    61    1
    23    50    52   ar
    24    82    81    1
    25    82    83    2
    26    81    80    1
    27    37    38    1
    28    51    52   ar
    29    61    64    1
    30    61    62    1
    31    38    39    1
    32    27    26    2
    33    76    77    1
    34    80    77    1
    35    64    65    1
    36    77    78    1
    37    40    39    1
    38    40    41    1
    39    62    68   am
    40    62    63    2
    41    68    69    1
    42    26    25    1
    43    66    65    1
    44    65    67    1
    45    70    69    1
    46    70    71    2
    47    20    19    2
    48    75    73   am
    49    69    72    1
    50    72    73    1
    51    78    79    2
    52    78    85   am
    53    25    28    1
    54    25    24    1
    55    32    30   ar
    56    73    74    2
    57    85    86    1
    58    19    24   am
    59    19    18    1
    60    28    29    1
    61    29    30    1
    62    30    31   ar
    63    92    93    1
    64    99    97    1
    65    97    98    1
    66    97    96    1
    67    18    17    1
    68    18    21    1
    69    86    87    1
    70    86    89    1
    71    23    21    1
    72    87    88    2
    73    93    96    1
    74    93    94    1
    75    91    89    1
    76    89    90    1
    77    21    22    1
    78    94   100   am
    79    94    95    2
    80    11    10    2
    81   100   101    1
    82   109   110    1
    83   114   113    1
    84   110   111    1
    85   110   113    1
    86    10     9    1
    87     4     3    2
    88   101   102    1
    89   101   104    1
    90   102   103    2
    91   104   105    1
    92   111   112    2
    93   113   115    1
    94     9     8    1
    95     9    12    1
    96     3     8   am
    97     3     2    1
    98   106   105    1
    99   106   107    1
   100    12    13    1
   101     2     1    1
   102     2     5    1
   103     6     5    1
   104   107   108    1
   105     5     7    1
   106    13    14    1
   107   148   147   ar
   108    15    14    2
   109    14    16   am
   110   157   155    1
   111   155   154    1
   112   156   154    1
   113   147   146    1
   114   147   149   ar
   115   153   152    2
   116   154   151    1
   117   139   138    1
   118   151   152    1
   119   151   150    1
   120   146   145    1
   121   140   138    1
   122   144   143    2
   123   138   137    1
   124   150   143   am
   125   143   142    1
   126   145   142    1
   127   136   135    2
   128   142   141    1
   129   137   134    1
   130   135   134    1
   131   134   133    1
   132   133   128   am
   133   129   128    2
   134   128   127    1
   135   124   122   ar
   136   124   125   ar
   137   122   121   ar
   138   125   123   ar
   139   127   130    1
   140   127   126    1
   141   130   131    1
   142   119   118    2
   143   121   123   ar
   144   121   120    1
   145   126   118   am
   146   126   132    1
   147   118   117    1
   148   120   117    1
   149   131   132    1
   150   117   116    1
