@<TRIPOS>MOLECULE
tmp/1zh0A01.pdb
 108 103 0 0 0
SMALL
GASTEIGER

@<TRIPOS>ATOM
      1  N         75.0920   46.1750   -2.3360 N.3    34  GLY34      -0.1210
      2  CA        73.9110   45.3600   -2.4320 C.3    34  GLY34       0.1956
      3  C         73.9990   44.2070   -1.4750 C.2    34  GLY34       0.2611
      4  O         75.0370   43.6270   -1.3230 O.2    34  GLY34      -0.2717
      5  N         72.8690   43.8190   -0.8950 N.am   35  PHE35      -0.1976
      6  CA        72.8420   42.6540   -0.0230 C.3    35  PHE35       0.1639
      7  C         71.6730   41.7660   -0.3840 C.2    35  PHE35       0.2290
      8  O         70.5450   42.2580   -0.3860 O.2    35  PHE35      -0.2864
      9  CB        72.5670   43.0720    1.4220 C.3    35  PHE35       0.0560
     10  CG        73.7120   43.7630    2.1010 C.ar   35  PHE35      -0.0200
     11  CD1       73.6390   45.1030    2.3950 C.ar   35  PHE35      -0.0042
     12  CD2       74.8310   43.0600    2.4530 C.ar   35  PHE35      -0.0042
     13  CE1       74.6810   45.7320    3.0110 C.ar   35  PHE35      -0.0003
     14  CE2       75.8830   43.6920    3.1180 C.ar   35  PHE35      -0.0003
     15  CZ        75.7980   45.0200    3.3940 C.ar   35  PHE35      -0.0000
     16  N         74.6370   40.1130   10.7180 N.3    42  HIS42      -0.1241
     17  CA        75.7310   39.6450   11.5350 C.3    42  HIS42       0.1621
     18  C         76.9430   40.5250   11.3850 C.2    42  HIS42       0.2264
     19  O         76.8450   41.6140   10.8350 O.2    42  HIS42      -0.2867
     20  CB        76.0260   38.1550   11.2760 C.3    42  HIS42       0.0745
     21  CG        76.1730   37.7730    9.8310 C.ar   42  HIS42       0.0817
     22  ND1       77.2680   38.1180    9.0680 N.ar   42  HIS42      -0.2268
     23  CD2       75.4120   36.9680    9.0490 C.ar   42  HIS42       0.1154
     24  CE1       77.1430   37.5980    7.8610 C.ar   42  HIS42       0.1986
     25  NE2       76.0290   36.8880    7.8280 N.ar   42  HIS42      -0.2212
     26  N         79.6710   40.1210    9.6720 N.3    44  GLY44      -0.1210
     27  CA        79.9590   40.2870    8.2460 C.3    44  GLY44       0.1956
     28  C         79.2320   41.4510    7.5850 C.2    44  GLY44       0.2611
     29  O         79.8360   42.2410    6.9040 O.2    44  GLY44      -0.2717
     30  N         77.9300   41.5670    7.7940 N.am   45  HIS45      -0.1975
     31  CA        77.2260   42.7400    7.3270 C.3    45  HIS45       0.1656
     32  C         77.7120   43.9990    8.0330 C.2    45  HIS45       0.2291
     33  O         77.8890   45.0260    7.3880 O.2    45  HIS45      -0.2864
     34  CB        75.7330   42.6110    7.5740 C.3    45  HIS45       0.0771
     35  CG        75.1170   41.3980    6.9490 C.ar   45  HIS45       0.0820
     36  ND1       74.8450   40.2590    7.6680 N.ar   45  HIS45      -0.2267
     37  CD2       74.7260   41.1450    5.6790 C.ar   45  HIS45       0.1154
     38  CE1       74.3040   39.3550    6.8710 C.ar   45  HIS45       0.1986
     39  NE2       74.2200   39.8660    5.6570 N.ar   45  HIS45      -0.2212
     40  N         80.7900   45.5140    6.5530 N.3    48  GLN48      -0.1245
     41  CA        80.5080   46.2600    5.3500 C.3    48  GLN48       0.1566
     42  C         79.7660   47.5840    5.6180 C.2    48  GLN48       0.2260
     43  O         80.0740   48.6080    5.0200 O.2    48  GLN48      -0.2867
     44  CB        79.7430   45.3790    4.3950 C.3    48  GLN48       0.0367
     45  CG        80.4760   44.0960    4.0520 C.3    48  GLN48       0.0905
     46  CD        80.4520   43.8230    2.5840 C.2    48  GLN48       0.2608
     47  OE1       81.1040   44.5130    1.8150 O.2    48  GLN48      -0.2717
     48  NE2       79.6710   42.8440    2.1790 N.am   48  GLN48      -0.0878
     49  N         82.0050   42.4590   -0.4640 N.3   170  GLY170     -0.1225
     50  CA        83.0580   41.6060    0.0230 C.3   170  GLY170      0.1811
     51  C         83.8920   41.0490   -1.1040 C.2   170  GLY170      0.2280
     52  O         83.5010   41.0900   -2.2470 O.2   170  GLY170     -0.2866
     53  N         84.2450   38.1840   -2.0300 N.3   172  GLU172     -0.1231
     54  CA        83.5470   37.1530   -2.8120 C.3   172  GLU172      0.1699
     55  C         82.8310   37.6960   -4.0560 C.2   172  GLU172      0.2592
     56  O         82.6000   36.9350   -5.0120 O.2   172  GLU172     -0.2718
     57  CB        82.6230   36.2690   -1.9410 C.3   172  GLU172      0.0402
     58  CG        81.2690   36.8680   -1.6510 C.3   172  GLU172      0.1161
     59  CD        81.3070   38.0580   -0.6820 C.2   172  GLU172      0.3649
     60  OE1       80.2920   38.7830   -0.6250 O.co2 172  GLU172     -0.2457
     61  OE2       82.3260   38.2630    0.0310 O.co2 172  GLU172     -0.2457
     62  N         82.5040   38.9990   -4.0510 N.am  173  GLN173     -0.1979
     63  CA        81.9390   39.7160   -5.1880 C.3   173  GLN173      0.1601
     64  C         82.9490   40.1400   -6.2650 C.2   173  GLN173      0.2287
     65  O         82.5250   40.6330   -7.2870 O.2   173  GLN173     -0.2864
     66  CB        81.3110   41.0310   -4.7230 C.3   173  GLN173      0.0394
     67  CG        80.2990   40.9450   -3.5580 C.3   173  GLN173      0.0908
     68  CD        79.1760   40.0520   -3.8740 C.2   173  GLN173      0.2608
     69  OE1       78.4940   40.2240   -4.8960 O.2   173  GLN173     -0.2717
     70  NE2       78.9380   39.0890   -3.0030 N.am  173  GLN173     -0.0878
     71  N         86.2880   39.0160    4.0850 N.3   195  VAL195     -0.1231
     72  CA        85.1880   38.1290    4.3390 C.3   195  VAL195      0.1692
     73  C         85.5230   37.5000    5.6540 C.2   195  VAL195      0.2591
     74  O         86.6150   36.9890    5.8070 O.2   195  VAL195     -0.2718
     75  CB        85.0550   37.0550    3.2280 C.3   195  VAL195      0.0266
     76  CG1       83.8730   36.1820    3.5110 C.3   195  VAL195      0.0020
     77  CG2       84.8460   37.7230    1.8760 C.3   195  VAL195      0.0020
     78  N         84.6050   37.5980    6.6200 N.am  196  LEU196     -0.1980
     79  CA        84.8900   37.1340    7.9820 C.3   196  LEU196      0.1596
     80  C         84.8250   35.6300    8.0680 C.2   196  LEU196      0.2287
     81  O         84.0100   35.0020    7.4180 O.2   196  LEU196     -0.2864
     82  CB        83.9150   37.7230    8.9970 C.3   196  LEU196      0.0297
     83  CG        84.1830   39.1550    9.4480 C.3   196  LEU196      0.0022
     84  CD1       83.0730   39.5790   10.3690 C.3   196  LEU196      0.0001
     85  CD2       85.5310   39.2580   10.1500 C.3   196  LEU196      0.0001
     86  N         83.1590   30.7100    5.9520 N.3   204  LYS204     -0.1231
     87  CA        82.8600   32.1210    6.1810 C.3   204  LYS204      0.1693
     88  C         81.5910   32.2510    6.9960 C.2   204  LYS204      0.2592
     89  O         80.7810   31.3280    7.0390 O.2   204  LYS204     -0.2718
     90  CB        82.6890   32.8380    4.8350 C.3   204  LYS204      0.0285
     91  CG        83.9390   32.7560    3.9380 C.3   204  LYS204      0.0035
     92  CD        85.2480   33.0310    4.7320 C.3   204  LYS204      0.0206
     93  CE        86.4660   33.2690    3.8330 C.3   204  LYS204      0.1093
     94  NZ        87.4310   34.2220    4.4280 N.3   204  LYS204     -0.1314
     95  N         81.4360   33.3990    7.6470 N.am  205  MET205     -0.1965
     96  CA        80.2880   33.6760    8.5100 C.3   205  MET205      0.1736
     97  C         79.0300   33.8220    7.6820 C.2   205  MET205      0.2617
     98  O         79.0190   34.5840    6.7280 O.2   205  MET205     -0.2715
     99  CB        80.5270   34.9580    9.3170 C.3   205  MET205      0.0427
    100  CG        79.4890   35.2120   10.3810 C.3   205  MET205      0.0599
    101  SD        79.9220   36.5570   11.5020 S.3   205  MET205     -0.1393
    102  CE        81.1570   35.7580   12.5260 C.3   205  MET205      0.0692
    103  N         77.9730   33.1020    8.0470 N.am  206  SER206     -0.1950
    104  CA        76.7500   33.0550    7.2400 C.3   206  SER206      0.1924
    105  C         75.4950   32.8520    8.0940 C.2   206  SER206      0.2314
    106  O         75.4970   32.0540    9.0350 O.2   206  SER206     -0.2863
    107  CB        76.8400   31.9260    6.2100 C.3   206  SER206      0.2116
    108  OG        75.5500   31.5930    5.7030 O.3   206  SER206     -0.2180
@<TRIPOS>BOND
     1    65    64    2
     2    64    63    1
     3    63    66    1
     4    63    62    1
     5    56    55    2
     6    69    68    2
     7    66    67    1
     8    55    62   am
     9    55    54    1
    10    68    67    1
    11    68    70   am
    12    54    53    1
    13    54    57    1
    14     2     1    1
    15     2     3    1
    16    52    51    2
    17    57    58    1
    18    58    59    1
    19     3     4    2
    20     3     5   am
    21    51    50    1
    22     5     6    1
    23    59    60   ar
    24    59    61   ar
    25    49    50    1
    26     8     7    2
    27     7     6    1
    28     6     9    1
    29     9    10    1
    30    47    46    2
    31    77    75    1
    32    10    11   ar
    33    10    12   ar
    34    48    46   am
    35    11    13   ar
    36    12    14   ar
    37    46    45    1
    38    13    15   ar
    39    14    15   ar
    40    75    76    1
    41    75    72    1
    42    93    94    1
    43    93    92    1
    44    91    92    1
    45    91    90    1
    46    45    44    1
    47    71    72    1
    48    72    73    1
    49    44    41    1
    50    90    87    1
    51    43    42    2
    52    41    42    1
    53    41    40    1
    54    73    74    2
    55    73    78   am
    56    39    37   ar
    57    39    38   ar
    58    37    35   ar
    59   108   107    1
    60    86    87    1
    61    87    88    1
    62   107   104    1
    63    78    79    1
    64    98    97    2
    65    38    36   ar
    66    29    28    2
    67    35    34    1
    68    35    36   ar
    69    88    89    2
    70    88    95   am
    71   104   103    1
    72   104   105    1
    73    31    34    1
    74    31    30    1
    75    31    32    1
    76    33    32    2
    77    81    80    2
    78    28    30   am
    79    28    27    1
    80    95    96    1
    81    97   103   am
    82    97    96    1
    83    25    24   ar
    84    25    23   ar
    85    24    22   ar
    86    79    80    1
    87    79    82    1
    88   105   106    2
    89    27    26    1
    90    96    99    1
    91    82    83    1
    92    23    21   ar
    93    22    21   ar
    94    99   100    1
    95    83    85    1
    96    83    84    1
    97    21    20    1
    98   100   101    1
    99    16    17    1
   100    19    18    2
   101    20    17    1
   102    18    17    1
   103   101   102    1
