@<TRIPOS>MOLECULE
tmp/1zh0A00.pdb
 156 151 0 0 0
SMALL
GASTEIGER

@<TRIPOS>ATOM
      1  N         77.3870   52.5710   -3.6580 N.3    32  LEU32      -0.1231
      2  CA        76.3730   51.5150   -3.5850 C.3    32  LEU32       0.1693
      3  C         76.8890   50.2560   -2.9300 C.2    32  LEU32       0.2592
      4  O         78.0090   49.8240   -3.2130 O.2    32  LEU32      -0.2718
      5  CB        75.9190   51.1590   -5.0010 C.3    32  LEU32       0.0284
      6  CG        75.0310   49.9390   -5.1970 C.3    32  LEU32       0.0019
      7  CD1       73.6320   50.4080   -4.9650 C.3    32  LEU32       0.0001
      8  CD2       75.1630   49.4080   -6.6200 C.3    32  LEU32       0.0001
      9  N         76.0580   49.5830   -2.1190 N.am   33  ILE33      -0.1966
     10  CA        76.3330   48.1610   -1.7970 C.3    33  ILE33       0.1727
     11  C         75.0310   47.4370   -1.9180 C.2    33  ILE33       0.2617
     12  O         73.9610   48.0590   -1.6810 O.2    33  ILE33      -0.2715
     13  CB        76.9130   47.9700   -0.3850 C.3    33  ILE33       0.0290
     14  CG1       77.2130   46.4890   -0.0910 C.3    33  ILE33       0.0022
     15  CG2       76.0150   48.5990    0.6680 C.3    33  ILE33       0.0023
     16  CD1       78.1750   46.3470    0.9970 C.3    33  ILE33       0.0001
     17  N         75.0920   46.1750   -2.3360 N.am   34  GLY34      -0.1940
     18  CA        73.9110   45.3600   -2.4320 C.3    34  GLY34       0.2014
     19  C         73.9990   44.2070   -1.4750 C.2    34  GLY34       0.2639
     20  O         75.0370   43.6270   -1.3230 O.2    34  GLY34      -0.2714
     21  N         72.8690   43.8190   -0.8950 N.am   35  PHE35      -0.1959
     22  CA        72.8420   42.6540   -0.0230 C.3    35  PHE35       0.1771
     23  C         71.6730   41.7660   -0.3840 C.2    35  PHE35       0.2619
     24  O         70.5450   42.2580   -0.3860 O.2    35  PHE35      -0.2715
     25  CB        72.5670   43.0720    1.4220 C.3    35  PHE35       0.0574
     26  CG        73.7120   43.7630    2.1010 C.ar   35  PHE35      -0.0200
     27  CD1       73.6390   45.1030    2.3950 C.ar   35  PHE35      -0.0042
     28  CD2       74.8310   43.0600    2.4530 C.ar   35  PHE35      -0.0042
     29  CE1       74.6810   45.7320    3.0110 C.ar   35  PHE35      -0.0003
     30  CE2       75.8830   43.6920    3.1180 C.ar   35  PHE35      -0.0003
     31  CZ        75.7980   45.0200    3.3940 C.ar   35  PHE35      -0.0000
     32  N         71.9180   40.4720   -0.5950 N.am   36  GLU36      -0.1977
     33  CA        70.8110   39.5100   -0.5610 C.3    36  GLU36       0.1602
     34  C         70.2100   39.6750    0.8230 C.2    36  GLU36       0.2287
     35  O         70.9300   39.5450    1.7900 O.2    36  GLU36      -0.2864
     36  CB        71.3300   38.0680   -0.7270 C.3    36  GLU36       0.0415
     37  CG        71.6130   37.6910   -2.1900 C.3    36  GLU36       0.1163
     38  CD        72.0160   36.2480   -2.3590 C.2    36  GLU36       0.3649
     39  OE1       71.4060   35.3980   -1.7160 O.co2  36  GLU36      -0.2457
     40  OE2       72.9520   35.9770   -3.1430 O.co2  36  GLU36      -0.2457
     41  N         71.2200   48.6050   -2.0370 N.3    65  LEU65      -0.1245
     42  CA        70.2860   47.8000   -2.8070 C.3    65  LEU65       0.1561
     43  C         69.9050   46.5720   -1.9990 C.2    65  LEU65       0.2260
     44  O         70.7620   45.7730   -1.6040 O.2    65  LEU65      -0.2867
     45  CB        70.8730   47.3470   -4.1460 C.3    65  LEU65       0.0270
     46  CG        70.1360   46.2640   -4.8790 C.3    65  LEU65       0.0019
     47  CD1       68.8540   46.7160   -5.5420 C.3    65  LEU65       0.0001
     48  CD2       71.1330   45.7010   -5.8690 C.3    65  LEU65       0.0001
     49  N         68.5880   43.2890   -2.4060 N.3    67  ALA67      -0.1245
     50  CA        68.6700   42.5150   -3.6370 C.3    67  ALA67       0.1562
     51  C         67.7890   41.3250   -3.5210 C.2    67  ALA67       0.2260
     52  O         68.2560   40.1910   -3.5040 O.2    67  ALA67      -0.2867
     53  CB        70.1030   42.0870   -3.8990 C.3    67  ALA67       0.0290
     54  N         67.8540   38.8990   -6.6990 N.3    70  HIS70      -0.1241
     55  CA        69.0510   38.1000   -6.6640 C.3    70  HIS70       0.1621
     56  C         68.9760   36.9890   -5.6170 C.2    70  HIS70       0.2264
     57  O         69.4300   35.8340   -5.8190 O.2    70  HIS70      -0.2867
     58  CB        70.2240   38.9720   -6.3890 C.3    70  HIS70       0.0745
     59  CG        70.8270   39.5520   -7.6170 C.ar   70  HIS70       0.0817
     60  ND1       70.4400   40.7680   -8.1320 N.ar   70  HIS70      -0.2268
     61  CD2       71.8270   39.1020   -8.4160 C.ar   70  HIS70       0.1154
     62  CE1       71.1770   41.0440   -9.1950 C.ar   70  HIS70       0.1986
     63  NE2       72.0220   40.0470   -9.3940 N.ar   70  HIS70      -0.2212
     64  N         79.6310   32.6480   -4.2410 N.3   137  ILE137     -0.1245
     65  CA        78.3110   33.2520   -4.0300 C.3   137  ILE137      0.1561
     66  C         77.1790   32.2370   -4.1360 C.2   137  ILE137      0.2260
     67  O         76.2430   32.1960   -3.3220 O.2   137  ILE137     -0.2867
     68  CB        78.1340   34.3650   -5.0960 C.3   137  ILE137      0.0252
     69  CG1       79.1210   35.4730   -4.8170 C.3   137  ILE137      0.0019
     70  CG2       76.7140   34.9640   -5.0780 C.3   137  ILE137      0.0019
     71  CD1       79.0910   36.5800   -5.8660 C.3   137  ILE137      0.0001
     72  N         72.1280   35.2640  -12.2960 N.3   151  TYR151     -0.1241
     73  CA        72.5120   36.1250  -11.1670 C.3   151  TYR151      0.1605
     74  C         73.6320   37.0950  -11.4480 C.2   151  TYR151      0.2264
     75  O         73.4830   38.2650  -11.2430 O.2   151  TYR151     -0.2867
     76  CB        72.8750   35.2180   -9.9720 C.3   151  TYR151      0.0534
     77  CG        73.1480   35.9000   -8.6690 C.ar  151  TYR151     -0.0201
     78  CD1       72.3070   35.7060   -7.5800 C.ar  151  TYR151     -0.0009
     79  CD2       74.3390   36.6380   -8.4790 C.ar  151  TYR151     -0.0009
     80  CE1       72.5930   36.3100   -6.3620 C.ar  151  TYR151      0.0417
     81  CE2       74.6100   37.2620   -7.2710 C.ar  151  TYR151      0.0417
     82  CZ        73.7270   37.1030   -6.2320 C.ar  151  TYR151      0.1957
     83  OH        74.0040   37.6600   -5.0180 O.3   151  TYR151     -0.2866
     84  N         73.6150   41.1990  -11.8830 N.3   155  GLN155     -0.1245
     85  CA        74.3290   42.0710  -10.9170 C.3   155  GLN155      0.1566
     86  C         75.1910   43.1150  -11.6160 C.2   155  GLN155      0.2260
     87  O         75.5710   44.1390  -11.0110 O.2   155  GLN155     -0.2867
     88  CB        75.1310   41.2370   -9.9440 C.3   155  GLN155      0.0367
     89  CG        76.0660   42.0550   -9.0480 C.3   155  GLN155      0.0905
     90  CD        76.5860   41.3090   -7.8370 C.2   155  GLN155      0.2608
     91  OE1       75.9730   40.3360   -7.3490 O.2   155  GLN155     -0.2717
     92  NE2       77.7330   41.8020   -7.3060 N.am  155  GLN155     -0.0878
     93  N         72.0390   49.3310  -12.1450 N.3   160  HIS160     -0.1226
     94  CA        72.5580   49.3830  -10.7900 C.3   160  HIS160      0.1752
     95  C         73.6430   50.4290  -10.5680 C.2   160  HIS160      0.2596
     96  O         73.8620   50.8590   -9.4200 O.2   160  HIS160     -0.2718
     97  CB        73.0710   48.0440  -10.3560 C.3   160  HIS160      0.0759
     98  CG        71.9880   47.0350  -10.2250 C.ar  160  HIS160      0.0818
     99  ND1       72.0220   45.8180  -10.8640 N.ar  160  HIS160     -0.2268
    100  CD2       70.8020   47.0880   -9.5780 C.ar  160  HIS160      0.1154
    101  CE1       70.9080   45.1560  -10.6010 C.ar  160  HIS160      0.1986
    102  NE2       70.1530   45.8940   -9.8180 N.ar  160  HIS160     -0.2212
    103  N         74.3110   50.8300  -11.6430 N.am  161  TYR161     -0.1976
    104  CA        75.5070   51.6690  -11.5330 C.3   161  TYR161      0.1639
    105  C         75.2610   53.0570  -12.0180 C.2   161  TYR161      0.2290
    106  O         76.1630   53.8780  -11.9940 O.2   161  TYR161     -0.2864
    107  CB        76.6710   51.0090  -12.2830 C.3   161  TYR161      0.0560
    108  CG        76.9290   49.6080  -11.7760 C.ar  161  TYR161     -0.0198
    109  CD1       76.2180   48.5390  -12.2750 C.ar  161  TYR161     -0.0009
    110  CD2       77.8110   49.3620  -10.7290 C.ar  161  TYR161     -0.0009
    111  CE1       76.3910   47.2440  -11.7880 C.ar  161  TYR161      0.0417
    112  CE2       77.9880   48.0400  -10.2370 C.ar  161  TYR161      0.0417
    113  CZ        77.2740   47.0060  -10.7740 C.ar  161  TYR161      0.1957
    114  OH        77.4870   45.7290  -10.2930 O.3   161  TYR161     -0.2866
    115  N         81.2430   51.1070   -5.9080 N.3   167  VAL167     -0.1231
    116  CA        80.4870   49.9720   -5.3920 C.3   167  VAL167      0.1692
    117  C         81.3180   49.2170   -4.3610 C.2   167  VAL167      0.2591
    118  O         82.5330   49.0670   -4.5020 O.2   167  VAL167     -0.2718
    119  CB        79.9970   48.9460   -6.5160 C.3   167  VAL167      0.0266
    120  CG1       79.2440   49.6480   -7.6250 C.3   167  VAL167      0.0020
    121  CG2       81.1400   48.1670   -7.0310 C.3   167  VAL167      0.0020
    122  N         80.6620   48.8540   -3.2740 N.am  168  VAL168     -0.1980
    123  CA        81.3030   48.1710   -2.1480 C.3   168  VAL168      0.1595
    124  C         80.7170   46.7890   -2.0340 C.2   168  VAL168      0.2287
    125  O         79.5310   46.5800   -2.2500 O.2   168  VAL168     -0.2864
    126  CB        81.0960   48.9890   -0.8160 C.3   168  VAL168      0.0276
    127  CG1       81.8000   48.3740    0.3600 C.3   168  VAL168      0.0022
    128  CG2       81.5330   50.4180   -0.9850 C.3   168  VAL168      0.0022
    129  N         84.2450   38.1840   -2.0300 N.3   172  GLU172     -0.1231
    130  CA        83.5470   37.1530   -2.8120 C.3   172  GLU172      0.1699
    131  C         82.8310   37.6960   -4.0560 C.2   172  GLU172      0.2592
    132  O         82.6000   36.9350   -5.0120 O.2   172  GLU172     -0.2718
    133  CB        82.6230   36.2690   -1.9410 C.3   172  GLU172      0.0402
    134  CG        81.2690   36.8680   -1.6510 C.3   172  GLU172      0.1161
    135  CD        81.3070   38.0580   -0.6820 C.2   172  GLU172      0.3649
    136  OE1       80.2920   38.7830   -0.6250 O.co2 172  GLU172     -0.2457
    137  OE2       82.3260   38.2630    0.0310 O.co2 172  GLU172     -0.2457
    138  N         82.5040   38.9990   -4.0510 N.am  173  GLN173     -0.1979
    139  CA        81.9390   39.7160   -5.1880 C.3   173  GLN173      0.1601
    140  C         82.9490   40.1400   -6.2650 C.2   173  GLN173      0.2287
    141  O         82.5250   40.6330   -7.2870 O.2   173  GLN173     -0.2864
    142  CB        81.3110   41.0310   -4.7230 C.3   173  GLN173      0.0394
    143  CG        80.2990   40.9450   -3.5580 C.3   173  GLN173      0.0908
    144  CD        79.1760   40.0520   -3.8740 C.2   173  GLN173      0.2608
    145  OE1       78.4940   40.2240   -4.8960 O.2   173  GLN173     -0.2717
    146  NE2       78.9380   39.0890   -3.0030 N.am  173  GLN173     -0.0878
    147  N         82.2500   41.9740   -9.8790 N.3   177  HIS177     -0.1241
    148  CA        82.6500   43.3770  -10.0540 C.3   177  HIS177      0.1621
    149  C         83.6120   43.5560  -11.2240 C.2   177  HIS177      0.2264
    150  O         83.5110   44.5590  -11.9500 O.2   177  HIS177     -0.2867
    151  CB        83.2420   43.9930   -8.7780 C.3   177  HIS177      0.0745
    152  CG        82.2400   44.1780   -7.6790 C.ar  177  HIS177      0.0817
    153  ND1       82.6070   44.4100   -6.3680 N.ar  177  HIS177     -0.2268
    154  CD2       80.8870   44.1430   -7.6930 C.ar  177  HIS177      0.1154
    155  CE1       81.5170   44.4920   -5.6250 C.ar  177  HIS177      0.1986
    156  NE2       80.4610   44.3860   -6.4140 N.ar  177  HIS177     -0.2212
@<TRIPOS>BOND
     1    72    73    1
     2   107   108    1
     3   107   104    1
     4   109   111   ar
     5   109   108   ar
     6    93    94    1
     7   105   106    2
     8   105   104    1
     9   150   149    2
    10    84    85    1
    11   111   113   ar
    12   108   110   ar
    13   103   104    1
    14   103    95   am
    15    86    87    2
    16    86    85    1
    17    74    75    2
    18    74    73    1
    19   149   148    1
    20    73    76    1
    21    85    88    1
    22    99   101   ar
    23    99    98   ar
    24    94    95    1
    25    94    97    1
    26   113   114    1
    27   113   112   ar
    28   110   112   ar
    29   101   102   ar
    30    95    96    2
    31    97    98    1
    32    98   100   ar
    33   148   147    1
    34   148   151    1
    35    76    77    1
    36    88    89    1
    37   102   100   ar
    38    63    62   ar
    39    63    61   ar
    40    62    60   ar
    41    89    90    1
    42   151   152    1
    43    77    79   ar
    44    77    78   ar
    45    79    81   ar
    46    61    59   ar
    47    60    59   ar
    48    90    91    2
    49    90    92   am
    50   154   152   ar
    51   154   156   ar
    52   152   153   ar
    53   120   119    1
    54    59    58    1
    55    78    80   ar
    56   141   140    2
    57    81    82   ar
    58   121   119    1
    59    54    55    1
    60    55    58    1
    61    55    56    1
    62     8     6    1
    63   119   116    1
    64   156   155   ar
    65   153   155   ar
    66    80    82   ar
    67   140   139    1
    68    82    83    1
    69   115   116    1
    70    48    46    1
    71    71    69    1
    72    57    56    2
    73    47    46    1
    74   116   117    1
    75     6     5    1
    76     6     7    1
    77   139   142    1
    78   139   138    1
    79    68    70    1
    80    68    69    1
    81    68    65    1
    82   132   131    2
    83     5     2    1
    84   145   144    2
    85    46    45    1
    86   142   143    1
    87   118   117    2
    88   117   122   am
    89    64    65    1
    90    45    42    1
    91    66    65    1
    92    66    67    2
    93   131   138   am
    94   131   130    1
    95    53    50    1
    96   144   143    1
    97   144   146   am
    98     1     2    1
    99    50    51    1
   100    50    49    1
   101     2     3    1
   102    51    52    2
   103   122   123    1
   104     4     3    2
   105    40    38   ar
   106     3     9   am
   107   130   129    1
   108   130   133    1
   109    42    41    1
   110    42    43    1
   111    18    17    1
   112    18    19    1
   113    38    37    1
   114    38    39   ar
   115    17    11   am
   116   125   124    2
   117    37    36    1
   118   123   124    1
   119   123   126    1
   120     9    10    1
   121    43    44    2
   122   133   134    1
   123    11    10    1
   124    11    12    2
   125    10    13    1
   126   134   135    1
   127    19    20    2
   128    19    21   am
   129   128   126    1
   130    21    22    1
   131   126   127    1
   132    36    33    1
   133   135   136   ar
   134   135   137   ar
   135    32    33    1
   136    32    23   am
   137    33    34    1
   138    24    23    2
   139    13    14    1
   140    13    15    1
   141    23    22    1
   142    14    16    1
   143    22    25    1
   144    34    35    2
   145    25    26    1
   146    26    27   ar
   147    26    28   ar
   148    27    29   ar
   149    28    30   ar
   150    29    31   ar
   151    30    31   ar
