@<TRIPOS>MOLECULE
tmp/1zh6A00.pdb
 122 114 0 0 0
SMALL
GASTEIGER

@<TRIPOS>ATOM
      1  N         77.5550   51.1250   -2.7580 N.3    32  LEU32      -0.1245
      2  CA        76.5740   50.0660   -2.8200 C.3    32  LEU32       0.1561
      3  C         77.1730   48.7830   -2.2510 C.2    32  LEU32       0.2260
      4  O         78.3210   48.4760   -2.4640 O.2    32  LEU32      -0.2867
      5  CB        76.1750   49.8840   -4.2870 C.3    32  LEU32       0.0270
      6  CG        75.5400   48.5750   -4.7220 C.3    32  LEU32       0.0019
      7  CD1       74.2460   48.4650   -4.0040 C.3    32  LEU32       0.0001
      8  CD2       75.3170   48.5710   -6.2330 C.3    32  LEU32       0.0001
      9  N         75.5940   44.6210   -1.5790 N.3    34  GLY34      -0.1210
     10  CA        74.4730   43.7090   -1.7190 C.3    34  GLY34       0.1956
     11  C         74.6740   42.4550   -0.8900 C.2    34  GLY34       0.2612
     12  O         75.7980   41.9390   -0.7680 O.2    34  GLY34      -0.2717
     13  N         73.5600   41.9630   -0.3490 N.am   35  PHE35      -0.1962
     14  CA        73.5300   40.7790    0.4890 C.3    35  PHE35       0.1771
     15  C         72.3590   39.8930    0.1170 C.2    35  PHE35       0.2619
     16  O         71.2450   40.3850    0.0450 O.2    35  PHE35      -0.2715
     17  CB        73.2600   41.1660    1.9450 C.3    35  PHE35       0.0574
     18  CG        74.3660   41.8870    2.6070 C.ar   35  PHE35      -0.0200
     19  CD1       74.2070   43.2060    2.9870 C.ar   35  PHE35      -0.0042
     20  CD2       75.5560   41.2430    2.8900 C.ar   35  PHE35      -0.0042
     21  CE1       75.2210   43.8810    3.6130 C.ar   35  PHE35      -0.0003
     22  CE2       76.5790   41.9160    3.5190 C.ar   35  PHE35      -0.0003
     23  CZ        76.4090   43.2390    3.8800 C.ar   35  PHE35      -0.0000
     24  N         72.5980   38.5980   -0.0810 N.am   36  GLU36      -0.1977
     25  CA        71.5350   37.6090   -0.0370 C.3    36  GLU36       0.1602
     26  C         71.0200   37.5980    1.4040 C.2    36  GLU36       0.2287
     27  O         71.8040   37.3550    2.3210 O.2    36  GLU36      -0.2864
     28  CB        72.0580   36.2210   -0.3770 C.3    36  GLU36       0.0415
     29  CG        72.5630   36.0500   -1.7950 C.3    36  GLU36       0.1163
     30  CD        72.8650   34.6050   -2.1240 C.2    36  GLU36       0.3649
     31  OE1       72.1090   33.7240   -1.6650 O.co2  36  GLU36      -0.2457
     32  OE2       73.8570   34.3460   -2.8480 O.co2  36  GLU36      -0.2457
     33  N         71.5650   46.7490   -1.1570 N.3    65  LEU65      -0.1245
     34  CA        70.8190   45.9040   -2.0500 C.3    65  LEU65       0.1561
     35  C         70.5470   44.5860   -1.3490 C.2    65  LEU65       0.2260
     36  O         71.4610   43.7730   -1.0980 O.2    65  LEU65      -0.2867
     37  CB        71.5870   45.7050   -3.3490 C.3    65  LEU65       0.0270
     38  CG        70.8970   44.8630   -4.4210 C.3    65  LEU65       0.0019
     39  CD1       69.4620   45.2570   -4.5910 C.3    65  LEU65       0.0001
     40  CD2       71.6560   45.0390   -5.7450 C.3    65  LEU65       0.0001
     41  N         69.4590   41.3750   -1.8080 N.3    67  ALA67      -0.1245
     42  CA        69.5730   40.6850   -3.0880 C.3    67  ALA67       0.1562
     43  C         68.6410   39.4720   -3.1040 C.2    67  ALA67       0.2260
     44  O         69.0730   38.3360   -2.9140 O.2    67  ALA67      -0.2867
     45  CB        71.0210   40.2820   -3.3110 C.3    67  ALA67       0.0290
     46  N         68.9360   37.1090   -6.2240 N.3    70  HIS70      -0.1241
     47  CA        70.1980   36.3930   -6.1340 C.3    70  HIS70       0.1621
     48  C         70.0150   35.2330   -5.1890 C.2    70  HIS70       0.2264
     49  O         70.3750   34.1100   -5.5270 O.2    70  HIS70      -0.2867
     50  CB        71.3570   37.3010   -5.7410 C.3    70  HIS70       0.0745
     51  CG        71.8450   38.1380   -6.8790 C.ar   70  HIS70       0.0817
     52  ND1       71.3130   39.3730   -7.1720 N.ar   70  HIS70      -0.2268
     53  CD2       72.7610   37.8820   -7.8430 C.ar   70  HIS70       0.1154
     54  CE1       71.9020   39.8550   -8.2540 C.ar   70  HIS70       0.1986
     55  NE2       72.7870   38.9700   -8.6790 N.ar   70  HIS70      -0.2212
     56  N         65.5250   44.4300  -11.0240 N.3   109  GLN109     -0.1245
     57  CA        66.3100   43.4070  -11.7180 C.3   109  GLN109      0.1566
     58  C         65.5200   42.5380  -12.6750 C.2   109  GLN109      0.2260
     59  O         66.1110   41.7140  -13.3730 O.2   109  GLN109     -0.2867
     60  CB        67.0460   42.5230  -10.7330 C.3   109  GLN109      0.0367
     61  CG        68.2030   43.2270  -10.0540 C.3   109  GLN109      0.0905
     62  CD        68.8760   42.3350   -9.0530 C.2   109  GLN109      0.2608
     63  OE1       68.2200   41.5530   -8.3750 O.2   109  GLN109     -0.2717
     64  NE2       70.1920   42.4290   -8.9620 N.am  109  GLN109     -0.0878
     65  N         80.5020   31.1170   -3.5800 N.3   137  ILE137     -0.1245
     66  CA        79.1610   31.6760   -3.3570 C.3   137  ILE137      0.1561
     67  C         78.0450   30.6670   -3.6180 C.2   137  ILE137      0.2260
     68  O         77.0030   30.6730   -2.9550 O.2   137  ILE137     -0.2867
     69  CB        78.9460   32.8670   -4.2990 C.3   137  ILE137      0.0252
     70  CG1       79.8290   34.0400   -3.8870 C.3   137  ILE137      0.0019
     71  CG2       77.4770   33.3040   -4.3170 C.3   137  ILE137      0.0019
     72  CD1       80.1020   35.0120   -5.0410 C.3   137  ILE137      0.0001
     73  N         73.3000   34.0370  -12.0260 N.3   151  TYR151     -0.1241
     74  CA        73.5840   34.7940  -10.8240 C.3   151  TYR151      0.1605
     75  C         74.7170   35.7940  -11.0360 C.2   151  TYR151      0.2264
     76  O         74.5320   36.9860  -10.8610 O.2   151  TYR151     -0.2867
     77  CB        73.8900   33.7910   -9.7120 C.3   151  TYR151      0.0534
     78  CG        74.1900   34.3450   -8.3550 C.ar  151  TYR151     -0.0201
     79  CD1       73.2910   34.1790   -7.3180 C.ar  151  TYR151     -0.0009
     80  CD2       75.4000   35.0120   -8.0890 C.ar  151  TYR151     -0.0009
     81  CE1       73.5760   34.6360   -6.0530 C.ar  151  TYR151      0.0417
     82  CE2       75.6860   35.4960   -6.8180 C.ar  151  TYR151      0.0417
     83  CZ        74.7690   35.3050   -5.8070 C.ar  151  TYR151      0.1957
     84  OH        75.0240   35.7720   -4.5390 O.3   151  TYR151     -0.2866
     85  N         74.4470   39.9100  -11.0450 N.3   155  GLN155     -0.1245
     86  CA        75.2160   40.7060  -10.1080 C.3   155  GLN155      0.1566
     87  C         75.9520   41.8340  -10.8460 C.2   155  GLN155      0.2260
     88  O         75.8120   43.0050  -10.5010 O.2   155  GLN155     -0.2867
     89  CB        76.2130   39.8380   -9.3420 C.3   155  GLN155      0.0367
     90  CG        76.9190   40.6470   -8.2640 C.3   155  GLN155      0.0905
     91  CD        77.3960   39.8290   -7.1190 C.2   155  GLN155      0.2608
     92  OE1       76.8670   38.7410   -6.8280 O.2   155  GLN155     -0.2717
     93  NE2       78.4090   40.3420   -6.4420 N.am  155  GLN155     -0.0878
     94  N         74.1050   44.7820  -11.9240 N.3   158  GLY158     -0.1210
     95  CA        73.6050   45.6170  -10.8200 C.3   158  GLY158      0.1956
     96  C         74.6500   46.4980  -10.1510 C.2   158  GLY158      0.2612
     97  O         74.3250   47.3280   -9.3050 O.2   158  GLY158     -0.2717
     98  N         75.9090   46.3270  -10.5240 N.am  159  CYS159     -0.1970
     99  CA        76.9950   47.0400   -9.8640 C.3   159  CYS159      0.1712
    100  C         76.9500   48.5140  -10.1270 C.2   159  CYS159      0.2296
    101  O         77.3740   49.2910   -9.2940 O.2   159  CYS159     -0.2864
    102  CB        78.3580   46.4790  -10.2850 C.3   159  CYS159      0.0983
    103  SG        78.7320   44.9250   -9.4620 S.3   159  CYS159     -0.0798
    104  N         83.5810   37.8460   -3.2930 N.3   173  GLN173     -0.1245
    105  CA        82.8710   38.4430   -4.4180 C.3   173  GLN173      0.1566
    106  C         83.8020   38.8570   -5.5430 C.2   173  GLN173      0.2260
    107  O         83.3340   39.3260   -6.5920 O.2   173  GLN173     -0.2867
    108  CB        82.0900   39.6760   -3.9740 C.3   173  GLN173      0.0367
    109  CG        81.1470   39.4360   -2.7860 C.3   173  GLN173      0.0905
    110  CD        79.9180   38.6110   -3.1290 C.2   173  GLN173      0.2608
    111  OE1       79.2640   38.8430   -4.1420 O.2   173  GLN173     -0.2717
    112  NE2       79.5800   37.6600   -2.2640 N.am  173  GLN173     -0.0878
    113  N         83.4210   40.5540   -9.3220 N.3   177  HIS177     -0.1241
    114  CA        83.7140   41.9790   -9.4940 C.3   177  HIS177      0.1621
    115  C         84.6350   42.1860  -10.6650 C.2   177  HIS177      0.2264
    116  O         84.4790   43.1490  -11.4020 O.2   177  HIS177     -0.2867
    117  CB        84.2720   42.5880   -8.2220 C.3   177  HIS177      0.0745
    118  CG        83.2340   42.7810   -7.1570 C.ar  177  HIS177      0.0817
    119  ND1       83.5460   43.0640   -5.8470 N.ar  177  HIS177     -0.2268
    120  CD2       81.8840   42.7420   -7.2180 C.ar  177  HIS177      0.1154
    121  CE1       82.4370   43.1910   -5.1470 C.ar  177  HIS177      0.1986
    122  NE2       81.4130   42.9850   -5.9540 N.ar  177  HIS177     -0.2212
@<TRIPOS>BOND
     1    59    58    2
     2    58    57    1
     3    73    74    1
     4    94    95    1
     5    57    56    1
     6    57    60    1
     7   116   115    2
     8    85    86    1
     9    75    76    2
    10    75    74    1
    11    87    88    2
    12    87    86    1
    13    74    77    1
    14    95    96    1
    15    60    61    1
    16   115   114    1
    17    98    96   am
    18    98    99    1
    19   102    99    1
    20   102   103    1
    21    96    97    2
    22   100    99    1
    23   100   101    2
    24    86    89    1
    25    61    62    1
    26    77    78    1
    27   114   113    1
    28   114   117    1
    29    89    90    1
    30    62    64   am
    31    62    63    2
    32    55    54   ar
    33    55    53   ar
    34    78    80   ar
    35    78    79   ar
    36    90    91    1
    37    54    52   ar
    38   117   118    1
    39    80    82   ar
    40    53    51   ar
    41    79    81   ar
    42   120   118   ar
    43   120   122   ar
    44    52    51   ar
    45   118   119   ar
    46    91    92    2
    47    91    93   am
    48    51    50    1
    49    82    83   ar
    50   107   106    2
    51     8     6    1
    52    46    47    1
    53    47    50    1
    54    47    48    1
    55    81    83   ar
    56   122   121   ar
    57   119   121   ar
    58    83    84    1
    59    40    38    1
    60   106   105    1
    61    49    48    2
    62    72    70    1
    63     6     5    1
    64     6     7    1
    65    39    38    1
    66    38    37    1
    67   105   108    1
    68   105   104    1
    69    71    69    1
    70    69    70    1
    71    69    66    1
    72     5     2    1
    73   111   110    2
    74   108   109    1
    75    67    66    1
    76    67    68    2
    77    65    66    1
    78    37    34    1
    79    45    42    1
    80   110   109    1
    81   110   112   am
    82    43    42    1
    83    43    44    2
    84    42    41    1
    85    32    30   ar
    86     2     1    1
    87     2     3    1
    88     4     3    2
    89    30    29    1
    90    30    31   ar
    91    34    35    1
    92    34    33    1
    93    29    28    1
    94    10     9    1
    95    10    11    1
    96    35    36    2
    97    11    12    2
    98    11    13   am
    99    28    25    1
   100    13    14    1
   101    24    25    1
   102    24    15   am
   103    25    26    1
   104    16    15    2
   105    15    14    1
   106    14    17    1
   107    26    27    2
   108    17    18    1
   109    18    20   ar
   110    18    19   ar
   111    20    22   ar
   112    19    21   ar
   113    22    23   ar
   114    21    23   ar
