@<TRIPOS>MOLECULE
tmp/1zhhA00.pdb
 106 101 0 0 0
SMALL
GASTEIGER

@<TRIPOS>ATOM
      1  N        -21.0550   86.6860   -1.0040 N.3     3  VAL3       -0.1245
      2  CA       -20.9650   85.3780   -0.3780 C.3     3  VAL3        0.1561
      3  C        -20.2010   84.4460   -1.3140 C.2     3  VAL3        0.2260
      4  O        -20.4300   84.4480   -2.5200 O.2     3  VAL3       -0.2867
      5  CB       -22.3600   84.8030   -0.0150 C.3     3  VAL3        0.0252
      6  CG1      -23.1280   84.3510   -1.2590 C.3     3  VAL3        0.0019
      7  CG2      -22.2160   83.6700    0.9800 C.3     3  VAL3        0.0019
      8  N        -20.0610   81.1750   -2.0900 N.3     5  ASN5       -0.1240
      9  CA       -20.7480   79.8860   -2.1060 C.3     5  ASN5        0.1653
     10  C        -20.7760   79.3250   -3.5270 C.2     5  ASN5        0.2266
     11  O        -20.8570   80.0750   -4.4990 O.2     5  ASN5       -0.2867
     12  CB       -22.1720   80.0590   -1.5680 C.3     5  ASN5        0.1155
     13  CG       -22.9540   78.7530   -1.5300 C.2     5  ASN5        0.2627
     14  OD1      -23.6470   78.4130   -2.4830 O.2     5  ASN5       -0.2716
     15  ND2      -22.8420   78.0190   -0.4230 N.am    5  ASN5       -0.0877
     16  N        -22.9130   77.8740   -5.4120 N.3     7  TYR7       -0.1227
     17  CA       -24.1450   77.8380   -6.1960 C.3     7  TYR7        0.1736
     18  C        -24.6930   79.2310   -6.4350 C.2     7  TYR7        0.2595
     19  O        -24.5890   80.1060   -5.5780 O.2     7  TYR7       -0.2718
     20  CB       -25.2050   76.9840   -5.4820 C.3     7  TYR7        0.0548
     21  CG       -24.7570   75.5700   -5.2200 C.ar    7  TYR7       -0.0200
     22  CD1      -23.9770   75.2610   -4.1040 C.ar    7  TYR7       -0.0009
     23  CD2      -25.1080   74.5330   -6.0810 C.ar    7  TYR7       -0.0009
     24  CE1      -23.5540   73.9660   -3.8600 C.ar    7  TYR7        0.0417
     25  CE2      -24.6970   73.2300   -5.8370 C.ar    7  TYR7        0.0417
     26  CZ       -23.9200   72.9530   -4.7270 C.ar    7  TYR7        0.1957
     27  OH       -23.5020   71.6670   -4.4780 O.3     7  TYR7       -0.2866
     28  N        -25.2590   79.4360   -7.6150 N.am    8  TRP8       -0.1962
     29  CA       -26.0700   80.6080   -7.8950 C.3     8  TRP8        0.1771
     30  C        -27.4280   80.4670   -7.2320 C.2     8  TRP8        0.2620
     31  O        -28.0730   79.4260   -7.3800 O.2     8  TRP8       -0.2715
     32  CB       -26.3470   80.7150   -9.3920 C.3     8  TRP8        0.0590
     33  CG       -25.1780   81.0150  -10.2300 C.ar    8  TRP8        0.0006
     34  CD1      -24.3990   80.1180  -10.9020 C.ar    8  TRP8        0.0946
     35  CD2      -24.6580   82.3050  -10.5340 C.ar    8  TRP8        0.0152
     36  NE1      -23.4160   80.7770  -11.5970 N.ar    8  TRP8       -0.2442
     37  CE2      -23.5490   82.1210  -11.3840 C.ar    8  TRP8        0.0810
     38  CE3      -25.0070   83.6060  -10.1620 C.ar    8  TRP8        0.0012
     39  CZ2      -22.7870   83.1830  -11.8660 C.ar    8  TRP8        0.0191
     40  CZ3      -24.2520   84.6610  -10.6430 C.ar    8  TRP8        0.0001
     41  CH2      -23.1530   84.4430  -11.4830 C.ar    8  TRP8        0.0015
     42  N        -27.8910   81.5100   -6.5510 N.am    9  GLY9       -0.1954
     43  CA       -29.3030   81.6070   -6.2150 C.3     9  GLY9        0.1869
     44  C        -30.1320   81.6100   -7.4930 C.2     9  GLY9        0.2309
     45  O        -29.6280   81.9830   -8.5520 O.2     9  GLY9       -0.2863
     46  N        -30.7630   85.1970   -8.3680 N.3    12  GLU12      -0.1245
     47  CA       -29.4260   85.7300   -8.6290 C.3    12  GLU12       0.1567
     48  C        -28.9620   85.3810  -10.0460 C.2    12  GLU12       0.2260
     49  O        -28.4150   86.2210  -10.7640 O.2    12  GLU12      -0.2867
     50  CB       -28.4300   85.1780   -7.6040 C.3    12  GLU12       0.0388
     51  CG       -27.0810   85.8840   -7.6010 C.3    12  GLU12       0.1160
     52  CD       -25.9970   85.1190   -6.8620 C.2    12  GLU12       0.3649
     53  OE1      -26.2590   84.0250   -6.3000 O.co2  12  GLU12      -0.2457
     54  OE2      -24.8620   85.6170   -6.8420 O.co2  12  GLU12      -0.2457
     55  N        -30.6360   75.9170   -8.2540 N.3   141  THR141     -0.1218
     56  CA       -29.5060   76.7970   -7.9810 C.3   141  THR141      0.1862
     57  C        -28.3040   76.3040   -8.7720 C.2   141  THR141      0.2287
     58  O        -27.5800   75.4270   -8.3000 O.2   141  THR141     -0.2866
     59  CB       -29.1650   76.7800   -6.4800 C.3   141  THR141      0.1770
     60  OG1      -28.9550   75.4320   -6.0370 O.3   141  THR141     -0.2211
     61  CG2      -30.3320   77.2870   -5.6540 C.3   141  THR141      0.0375
     62  N        -39.7360   83.1310    0.6610 N.3   164  ARG164     -0.1245
     63  CA       -39.9870   84.5580    0.4750 C.3   164  ARG164      0.1563
     64  C        -41.4770   84.8440    0.3640 C.2   164  ARG164      0.2260
     65  O        -41.9390   85.8580    0.8600 O.2   164  ARG164     -0.2867
     66  CB       -39.2580   85.0910   -0.7580 C.3   164  ARG164      0.0307
     67  CG       -37.8080   85.4310   -0.4990 C.3   164  ARG164      0.0489
     68  CD       -37.2550   86.5000   -1.4340 C.3   164  ARG164      0.2205
     69  NE       -36.8190   85.8850   -2.6790 N.pl3 164  ARG164     -0.0865
     70  CZ       -35.6780   85.2170   -2.8350 C.cat 164  ARG164      0.5346
     71  NH1      -34.8180   85.0850   -1.8300 N.pl3 164  ARG164      0.1354
     72  NH2      -35.3940   84.6750   -4.0110 N.pl3 164  ARG164      0.1354
     73  N        -28.3360   72.6980    4.5480 N.3   189  TYR189     -0.1241
     74  CA       -28.7910   73.4750    3.4060 C.3   189  TYR189      0.1605
     75  C        -30.2460   73.9500    3.4890 C.2   189  TYR189      0.2264
     76  O        -30.5450   75.1130    3.2230 O.2   189  TYR189     -0.2867
     77  CB       -28.6090   72.6290    2.1530 C.3   189  TYR189      0.0534
     78  CG       -29.0160   73.3360    0.9080 C.ar  189  TYR189     -0.0201
     79  CD1      -28.2280   74.3530    0.3900 C.ar  189  TYR189     -0.0009
     80  CD2      -30.1910   73.0020    0.2460 C.ar  189  TYR189     -0.0009
     81  CE1      -28.5940   75.0120   -0.7520 C.ar  189  TYR189      0.0417
     82  CE2      -30.5670   73.6590   -0.9000 C.ar  189  TYR189      0.0417
     83  CZ       -29.7630   74.6640   -1.3980 C.ar  189  TYR189      0.1957
     84  OH       -30.1190   75.3290   -2.5440 O.3   189  TYR189     -0.2866
     85  N        -30.6740   76.6670    5.8750 N.3   192  ASP192     -0.1225
     86  CA       -30.0870   77.8940    5.3390 C.3   192  ASP192      0.1805
     87  C        -31.0550   78.5970    4.3890 C.2   192  ASP192      0.2597
     88  O        -31.3170   79.7770    4.5450 O.2   192  ASP192     -0.2718
     89  CB       -28.7720   77.6210    4.5990 C.3   192  ASP192      0.1424
     90  CG       -27.6960   77.0220    5.4900 C.2   192  ASP192      0.3668
     91  OD1      -27.7490   77.1920    6.7340 O.co2 192  ASP192     -0.2456
     92  OD2      -26.7560   76.3470    5.0140 O.co2 192  ASP192     -0.2456
     93  N        -31.6070   77.8640    3.4250 N.am  193  VAL193     -0.1980
     94  CA       -32.3870   78.4920    2.3570 C.3   193  VAL193      0.1595
     95  C        -33.8790   78.6600    2.6690 C.2   193  VAL193      0.2287
     96  O        -34.5330   79.5240    2.0900 O.2   193  VAL193     -0.2864
     97  CB       -32.1930   77.7700    1.0070 C.3   193  VAL193      0.0276
     98  CG1      -32.9410   78.4900   -0.0710 C.3   193  VAL193      0.0022
     99  CG2      -30.7230   77.7430    0.6350 C.3   193  VAL193      0.0022
    100  N        -33.2350   82.5860    4.9320 N.3   197  THR197     -0.1218
    101  CA       -33.8660   83.4540    3.9390 C.3   197  THR197      0.1862
    102  C        -35.0710   84.1900    4.5220 C.2   197  THR197      0.2287
    103  O        -35.2540   85.3890    4.2780 O.2   197  THR197     -0.2866
    104  CB       -34.3290   82.6430    2.7160 C.3   197  THR197      0.1770
    105  OG1      -33.1930   82.1730    1.9760 O.3   197  THR197     -0.2211
    106  CG2      -35.0730   83.5280    1.7170 C.3   197  THR197      0.0375
@<TRIPOS>BOND
     1    39    41   ar
     2    39    37   ar
     3    36    37   ar
     4    36    34   ar
     5    41    40   ar
     6    37    35   ar
     7    34    33   ar
     8    49    48    2
     9    40    38   ar
    10    35    33   ar
    11    35    38   ar
    12    33    32    1
    13    48    47    1
    14    32    29    1
    15    57    58    2
    16    57    56    1
    17    47    46    1
    18    47    50    1
    19    45    44    2
    20    55    56    1
    21    56    59    1
    22    29    28    1
    23    29    30    1
    24    28    18   am
    25    50    51    1
    26    51    52    1
    27    44    43    1
    28    31    30    2
    29    30    42   am
    30    52    54   ar
    31    52    53   ar
    32    42    43    1
    33    59    60    1
    34    59    61    1
    35    18    17    1
    36    18    19    2
    37    17    20    1
    38    17    16    1
    39    23    25   ar
    40    23    21   ar
    41    25    26   ar
    42    20    21    1
    43    21    22   ar
    44    26    27    1
    45    26    24   ar
    46    11    10    2
    47    22    24   ar
    48    72    70    1
    49    10     9    1
    50    70    69    2
    51    70    71    1
    52    69    68    1
    53    84    83    1
    54     4     3    2
    55    14    13    2
    56     9     8    1
    57     9    12    1
    58    12    13    1
    59    13    15   am
    60    68    67    1
    61    83    82   ar
    62    83    81   ar
    63     3     2    1
    64     6     5    1
    65     1     2    1
    66    82    80   ar
    67    66    67    1
    68    66    63    1
    69    81    79   ar
    70     2     5    1
    71    98    97    1
    72     5     7    1
    73    80    78   ar
    74    64    63    1
    75    64    65    2
    76    79    78   ar
    77    63    62    1
    78    99    97    1
    79    78    77    1
    80    97    94    1
    81   106   104    1
    82   105   104    1
    83    96    95    2
    84    77    74    1
    85    94    95    1
    86    94    93    1
    87   104   101    1
    88    76    75    2
    89    74    75    1
    90    74    73    1
    91    93    87   am
    92   101   102    1
    93   101   100    1
    94   103   102    2
    95    87    88    2
    96    87    86    1
    97    89    86    1
    98    89    90    1
    99    92    90   ar
   100    86    85    1
   101    90    91   ar
