@<TRIPOS>MOLECULE
tmp/1zhpA00.pdb
 117 117 0 0 0
SMALL
GASTEIGER

@<TRIPOS>ATOM
      1  N         12.2800   29.8550   77.6520 N.3    44  HIS44      -0.1241
      2  CA        10.8730   30.2040   77.6280 C.3    44  HIS44       0.1621
      3  C         10.1740   29.5740   76.4190 C.2    44  HIS44       0.2264
      4  O          8.9470   29.6760   76.2570 O.2    44  HIS44      -0.2867
      5  CB        10.7320   31.6970   77.5630 C.3    44  HIS44       0.0745
      6  CG        10.7550   32.2140   76.1760 C.ar   44  HIS44       0.0817
      7  ND1       11.8570   32.7800   75.5950 N.ar   44  HIS44      -0.2268
      8  CD2        9.8090   32.1610   75.2230 C.ar   44  HIS44       0.1154
      9  CE1       11.6100   33.0780   74.3300 C.ar   44  HIS44       0.1986
     10  NE2       10.3690   32.7090   74.0890 N.ar   44  HIS44      -0.2212
     11  N         14.8320   43.5650   63.4220 N.3   182  ASP182     -0.1225
     12  CA        14.8090   42.9670   64.7530 C.3   182  ASP182      0.1805
     13  C         14.2200   41.5600   64.7070 C.2   182  ASP182      0.2598
     14  O         13.6610   41.1520   63.6900 O.2   182  ASP182     -0.2718
     15  CB        13.9690   43.8750   65.6630 C.3   182  ASP182      0.1424
     16  CG        13.8460   43.3580   67.0800 C.2   182  ASP182      0.3668
     17  OD1       14.7800   42.6790   67.5710 O.co2 182  ASP182     -0.2456
     18  OD2       12.8080   43.6660   67.7040 O.co2 182  ASP182     -0.2456
     19  N         14.3540   40.8060   65.7890 N.am  183  ALA183     -0.1966
     20  CA        13.7770   39.4670   65.8190 C.3   183  ALA183      0.1728
     21  C         12.3140   39.6720   66.1620 C.2   183  ALA183      0.2616
     22  O         11.9390   40.7580   66.5820 O.2   183  ALA183     -0.2715
     23  CB        14.4510   38.6260   66.8870 C.3   183  ALA183      0.0334
     24  N         11.4810   38.6570   65.9730 N.am  184  CYS184     -0.1954
     25  CA        10.0670   38.7830   66.3110 C.3   184  CYS184      0.1843
     26  C          9.4770   37.4270   66.6860 C.2   184  CYS184      0.2625
     27  O         10.1970   36.4270   66.7660 O.2   184  CYS184     -0.2714
     28  CB         9.2770   39.4040   65.1530 C.3   184  CYS184      0.0997
     29  SG         7.6550   40.1040   65.6520 S.3   184  CYS184     -0.0797
     30  N          8.1690   37.3840   66.9120 N.am  185  LYS185     -0.1977
     31  CA         7.5350   36.1410   67.3040 C.3   185  LYS185      0.1596
     32  C          7.9100   34.9870   66.3890 C.2   185  LYS185      0.2287
     33  O          7.7080   35.0550   65.1830 O.2   185  LYS185     -0.2864
     34  CB         6.0180   36.3000   67.3280 C.3   185  LYS185      0.0298
     35  CG         5.3310   35.2090   68.1400 C.3   185  LYS185      0.0038
     36  CD         3.8190   35.4040   68.2780 C.3   185  LYS185      0.0206
     37  CE         3.1860   34.2600   69.0870 C.3   185  LYS185      0.1093
     38  NZ         3.8110   34.0950   70.4460 N.3   185  LYS185     -0.1314
     39  N         12.3860   33.2320   68.6520 N.3   188  SER188     -0.1217
     40  CA        12.9490   32.9240   69.9570 C.3   188  SER188      0.1889
     41  C         13.8000   31.6670   69.8920 C.2   188  SER188      0.2288
     42  O         13.5410   30.7550   69.1000 O.2   188  SER188     -0.2866
     43  CB        11.8450   32.7880   70.9810 C.3   188  SER188      0.2089
     44  OG        11.1740   34.0250   71.1350 O.3   188  SER188     -0.2183
     45  N         18.1250   34.7430   70.7660 N.3   206  THR206     -0.1203
     46  CA        16.9190   35.5520   70.6920 C.3   206  THR206      0.1994
     47  C         16.0210   35.2230   71.8770 C.2   206  THR206      0.2619
     48  O         15.5880   34.0760   72.0510 O.2   206  THR206     -0.2717
     49  CB        16.1610   35.3080   69.3830 C.3   206  THR206      0.1784
     50  OG1       16.9980   35.6750   68.2810 O.3   206  THR206     -0.2211
     51  CG2       14.9000   36.1440   69.3410 C.3   206  THR206      0.0376
     52  N         15.7640   36.2370   72.7000 N.am  207  SER207     -0.1937
     53  CA        14.9420   36.0590   73.8820 C.3   207  SER207      0.2055
     54  C         13.6340   36.8340   73.8520 C.2   207  SER207      0.2643
     55  O         12.5620   36.2370   73.7520 O.2   207  SER207     -0.2714
     56  CB        15.7290   36.4490   75.1330 C.3   207  SER207      0.2130
     57  OG        14.9660   36.1740   76.2980 O.3   207  SER207     -0.2179
     58  N         13.7140   38.1590   73.9410 N.am  208  TRP208     -0.1959
     59  CA        12.5020   38.9730   73.9510 C.3   208  TRP208      0.1771
     60  C         12.7070   40.4100   73.4840 C.2   208  TRP208      0.2620
     61  O         13.8220   40.8400   73.1770 O.2   208  TRP208     -0.2715
     62  CB        11.9050   39.0090   75.3640 C.3   208  TRP208      0.0590
     63  CG        12.8490   39.5780   76.3990 C.ar  208  TRP208      0.0006
     64  CD1       13.9130   38.9440   76.9780 C.ar  208  TRP208      0.0946
     65  CD2       12.8490   40.9120   76.9200 C.ar  208  TRP208      0.0152
     66  NE1       14.5770   39.8040   77.8220 N.ar  208  TRP208     -0.2442
     67  CE2       13.9440   41.0170   77.8070 C.ar  208  TRP208      0.0810
     68  CE3       12.0310   42.0280   76.7250 C.ar  208  TRP208      0.0012
     69  CZ2       14.2420   42.1940   78.4970 C.ar  208  TRP208      0.0191
     70  CZ3       12.3290   43.2030   77.4140 C.ar  208  TRP208      0.0001
     71  CH2       13.4240   43.2730   78.2890 C.ar  208  TRP208      0.0015
     72  N         11.6050   41.1490   73.4560 N.am  209  GLY209     -0.1940
     73  CA        11.6370   42.5420   73.0620 C.3   209  GLY209      0.2014
     74  C         10.2520   43.1480   73.1750 C.2   209  GLY209      0.2639
     75  O          9.2600   42.4290   73.2690 O.2   209  GLY209     -0.2714
     76  N         10.1740   44.4690   73.1860 N.am  210  GLU210     -0.1963
     77  CA         8.8780   45.1200   73.2570 C.3   210  GLU210      0.1733
     78  C          8.3960   45.2870   71.8260 C.2   210  GLU210      0.2617
     79  O          8.9660   46.0660   71.0540 O.2   210  GLU210     -0.2715
     80  CB         8.9880   46.4890   73.9250 C.3   210  GLU210      0.0429
     81  CG         7.6380   47.1130   74.2130 C.3   210  GLU210      0.1163
     82  CD         6.8220   46.2620   75.1560 C.2   210  GLU210      0.3649
     83  OE1        7.2680   46.0670   76.3110 O.co2 210  GLU210     -0.2457
     84  OE2        5.7420   45.7820   74.7490 O.co2 210  GLU210     -0.2457
     85  N          7.3490   44.5490   71.4700 N.am  211  GLY211     -0.1940
     86  CA         6.8430   44.6220   70.1150 C.3   211  GLY211      0.2014
     87  C          7.8600   43.9720   69.1970 C.2   211  GLY211      0.2639
     88  O          8.3550   42.8840   69.5030 O.2   211  GLY211     -0.2714
     89  N          8.1830   44.6340   68.0880 N.am  212  CYS212     -0.1967
     90  CA         9.1440   44.1010   67.1270 C.3   212  CYS212      0.1712
     91  C          9.7060   45.1890   66.2330 C.2   212  CYS212      0.2296
     92  O          8.9650   45.8740   65.5330 O.2   212  CYS212     -0.2864
     93  CB         8.4920   43.0120   66.2500 C.3   212  CYS212      0.0983
     94  SG         8.1790   41.4300   67.1100 S.3   212  CYS212     -0.0798
     95  N         16.4510   44.6200   70.5140 N.3   219  GLY219     -0.1210
     96  CA        16.0160   43.2840   70.8650 C.3   219  GLY219      0.1956
     97  C         16.8590   42.7810   72.0190 C.2   219  GLY219      0.2612
     98  O         18.0110   43.1970   72.1710 O.2   219  GLY219     -0.2717
     99  N         16.2990   41.8960   72.8390 N.am  220  VAL220     -0.1965
    100  CA        17.0400   41.3530   73.9740 C.3   220  VAL220      0.1727
    101  C         17.4270   39.8980   73.7300 C.2   220  VAL220      0.2616
    102  O         16.5940   39.0850   73.3260 O.2   220  VAL220     -0.2715
    103  CB        16.2180   41.4310   75.2770 C.3   220  VAL220      0.0290
    104  CG1       17.1370   41.2330   76.4760 C.3   220  VAL220      0.0023
    105  CG2       15.5000   42.7730   75.3640 C.3   220  VAL220      0.0023
    106  N         18.6910   39.5800   73.9870 N.am  221  TYR221     -0.1974
    107  CA        19.2150   38.2350   73.7790 C.3   221  TYR221      0.1639
    108  C         19.9590   37.7360   75.0070 C.2   221  TYR221      0.2290
    109  O         20.5050   38.5300   75.7650 O.2   221  TYR221     -0.2864
    110  CB        20.2040   38.2270   72.6170 C.3   221  TYR221      0.0560
    111  CG        19.6770   38.7920   71.3280 C.ar  221  TYR221     -0.0198
    112  CD1       19.3620   40.1380   71.2110 C.ar  221  TYR221     -0.0009
    113  CD2       19.4770   37.9720   70.2290 C.ar  221  TYR221     -0.0009
    114  CE1       18.8550   40.6490   70.0310 C.ar  221  TYR221      0.0417
    115  CE2       18.9720   38.4740   69.0470 C.ar  221  TYR221      0.0417
    116  CZ        18.6630   39.8080   68.9540 C.ar  221  TYR221      0.1957
    117  OH        18.1660   40.2910   67.7700 O.3   221  TYR221     -0.2866
@<TRIPOS>BOND
     1    11    12    1
     2    14    13    2
     3    13    12    1
     4    13    19   am
     5    12    15    1
     6    28    29    1
     7    28    25    1
     8    33    32    2
     9    92    91    2
    10    29    94    1
    11    15    16    1
    12    19    20    1
    13    20    21    1
    14    20    23    1
    15    24    21   am
    16    24    25    1
    17    21    22    2
    18    91    90    1
    19    93    94    1
    20    93    90    1
    21    25    26    1
    22    32    31    1
    23    26    27    2
    24    26    30   am
    25    30    31    1
    26    16    17   ar
    27    16    18   ar
    28    90    89    1
    29    31    34    1
    30    34    35    1
    31   117   116    1
    32    89    87   am
    33    35    36    1
    34    36    37    1
    35    50    49    1
    36    39    40    1
    37   116   115   ar
    38   116   114   ar
    39   115   113   ar
    40    37    38    1
    41    42    41    2
    42    87    88    2
    43    87    86    1
    44    51    49    1
    45    49    46    1
    46    41    40    1
    47    40    43    1
    48   114   112   ar
    49    86    85    1
    50   113   111   ar
    51    95    96    1
    52    46    45    1
    53    46    47    1
    54    96    97    1
    55    43    44    1
    56    79    78    2
    57   112   111   ar
    58   111   110    1
    59    85    78   am
    60    78    77    1
    61    47    48    2
    62    47    52   am
    63    97    98    2
    64    97    99   am
    65   110   107    1
    66    52    53    1
    67    99   100    1
    68    73    74    1
    69    73    72    1
    70    74    76   am
    71    74    75    2
    72    61    60    2
    73    76    77    1
    74    77    80    1
    75   102   101    2
    76    72    60   am
    77    60    59    1
    78   101   100    1
    79   101   106   am
    80    55    54    2
    81   107   106    1
    82   107   108    1
    83    54    53    1
    84    54    58   am
    85    53    56    1
    86    80    81    1
    87    58    59    1
    88    59    62    1
    89   100   103    1
    90    10     9   ar
    91    10     8   ar
    92    81    82    1
    93     9     7   ar
    94    84    82   ar
    95   108   109    2
    96    56    57    1
    97    82    83   ar
    98     8     6   ar
    99   103   105    1
   100   103   104    1
   101    62    63    1
   102     7     6   ar
   103     6     5    1
   104     4     3    2
   105    63    65   ar
   106    63    64   ar
   107     3     2    1
   108    68    65   ar
   109    68    70   ar
   110    65    67   ar
   111    64    66   ar
   112    70    71   ar
   113     5     2    1
   114     2     1    1
   115    67    66   ar
   116    67    69   ar
   117    71    69   ar
