@<TRIPOS>MOLECULE
tmp/1zhsA01.pdb
 146 147 0 0 0
SMALL
GASTEIGER

@<TRIPOS>ATOM
      1  N          2.2870  -14.7380    3.3680 N.3    70  PRO70      -0.2102
      2  CA         1.7450  -15.9670    3.9510 C.3    70  PRO70       0.1504
      3  C          1.8450  -15.9420    5.4740 C.2    70  PRO70       0.2576
      4  O          2.9170  -15.6810    6.0210 O.2    70  PRO70      -0.2718
      5  CB         2.6230  -17.0530    3.3380 C.3    70  PRO70       0.0282
      6  CG         3.9470  -16.3660    3.2020 C.3    70  PRO70       0.0208
      7  CD         3.5610  -14.9940    2.6760 C.3    70  PRO70       0.0893
      8  N          0.7220  -16.1840    6.1440 N.am   71  LEU71      -0.1966
      9  CA         0.6760  -16.2380    7.6050 C.3    71  LEU71       0.1728
     10  C          0.3200  -17.6940    7.9100 C.2    71  LEU71       0.2616
     11  O         -0.7180  -18.1960    7.4730 O.2    71  LEU71      -0.2715
     12  CB        -0.3830  -15.2720    8.1490 C.3    71  LEU71       0.0311
     13  CG        -0.0940  -13.7920    7.8500 C.3    71  LEU71       0.0022
     14  CD1       -1.2980  -12.9320    8.2240 C.3    71  LEU71       0.0001
     15  CD2        1.1540  -13.3430    8.6020 C.3    71  LEU71       0.0001
     16  N          1.1890  -18.3640    8.6590 N.am   72  TRP72      -0.1960
     17  CA         1.0200  -19.7830    8.9540 C.3    72  TRP72       0.1771
     18  C          0.1670  -20.2030   10.1430 C.2    72  TRP72       0.2620
     19  O         -0.0830  -21.3930   10.3340 O.2    72  TRP72      -0.2715
     20  CB         2.4060  -20.4230    9.0620 C.3    72  TRP72       0.0590
     21  CG         3.2480  -20.1160    7.8640 C.ar   72  TRP72       0.0006
     22  CD1        4.2120  -19.1470    7.7530 C.ar   72  TRP72       0.0946
     23  CD2        3.1460  -20.7290    6.5770 C.ar   72  TRP72       0.0152
     24  NE1        4.7120  -19.1210    6.4690 N.ar   72  TRP72      -0.2442
     25  CE2        4.0730  -20.0810    5.7270 C.ar   72  TRP72       0.0810
     26  CE3        2.3560  -21.7610    6.0560 C.ar   72  TRP72       0.0012
     27  CZ2        4.2320  -20.4340    4.3830 C.ar   72  TRP72       0.0191
     28  CZ3        2.5130  -22.1110    4.7210 C.ar   72  TRP72       0.0001
     29  CH2        3.4450  -21.4470    3.8990 C.ar   72  TRP72       0.0015
     30  N         -0.2900  -19.2420   10.9370 N.am   73  SER73      -0.1936
     31  CA        -1.1150  -19.5680   12.0920 C.3    73  SER73       0.2055
     32  C         -1.7610  -18.3140   12.6470 C.2    73  SER73       0.2643
     33  O         -1.3270  -17.1970   12.3560 O.2    73  SER73      -0.2714
     34  CB        -0.2630  -20.2210   13.1840 C.3    73  SER73       0.2130
     35  OG         0.6790  -19.3000   13.7070 O.3    73  SER73      -0.2179
     36  N         -2.8040  -18.4920   13.4470 N.am   74  ASN74      -0.1957
     37  CA        -3.4610  -17.3400   14.0310 C.3    74  ASN74       0.1819
     38  C         -2.4930  -16.6580   14.9890 C.2    74  ASN74       0.2621
     39  O         -2.4890  -15.4320   15.1060 O.2    74  ASN74      -0.2715
     40  CB        -4.7250  -17.7480   14.7800 C.3    74  ASN74       0.1195
     41  CG        -5.4700  -16.5530   15.3330 C.2    74  ASN74       0.2630
     42  OD1       -5.8440  -15.6470   14.5880 O.2    74  ASN74      -0.2716
     43  ND2       -5.6840  -16.5400   16.6430 N.am   74  ASN74      -0.0877
     44  N         -1.6690  -17.4510   15.6730 N.am   75  ASP75      -0.1971
     45  CA        -0.6950  -16.8840   16.6030 C.3    75  ASP75       0.1709
     46  C          0.2150  -15.9130   15.8670 C.2    75  ASP75       0.2293
     47  O          0.4540  -14.7970   16.3290 O.2    75  ASP75      -0.2864
     48  CB         0.1730  -17.9720   17.2470 C.3    75  ASP75       0.1436
     49  CG        -0.5970  -18.8370   18.2240 C.2    75  ASP75       0.3671
     50  OD1       -1.6830  -18.4130   18.6720 O.co2  75  ASP75      -0.2456
     51  OD2       -0.1030  -19.9400   18.5510 O.co2  75  ASP75      -0.2456
     52  N         -1.8080  -12.7230   14.6710 N.3    78  GLN78      -0.1245
     53  CA        -2.1260  -11.7400   15.7060 C.3    78  GLN78       0.1566
     54  C         -0.8840  -10.9500   16.1230 C.2    78  GLN78       0.2260
     55  O         -0.9790   -9.7870   16.5170 O.2    78  GLN78      -0.2867
     56  CB        -2.7430  -12.4290   16.9290 C.3    78  GLN78       0.0367
     57  CG        -4.1000  -13.0840   16.6750 C.3    78  GLN78       0.0905
     58  CD        -5.1150  -12.1410   16.0420 C.2    78  GLN78       0.2608
     59  OE1       -5.1540  -10.9480   16.3490 O.2    78  GLN78      -0.2717
     60  NE2       -5.9540  -12.6820   15.1640 N.am   78  GLN78      -0.0878
     61  N         -7.6300   -5.2740   12.5650 N.3    93  THR93      -0.1203
     62  CA        -8.8660   -5.5490   13.3070 C.3    93  THR93       0.1994
     63  C         -8.8170   -6.8670   14.0680 C.2    93  THR93       0.2618
     64  O         -9.6110   -7.0930   14.9830 O.2    93  THR93      -0.2717
     65  CB       -10.0870   -5.6180   12.3750 C.3    93  THR93       0.1784
     66  OG1       -9.9650   -6.7610   11.5150 O.3    93  THR93      -0.2211
     67  CG2      -10.1990   -4.3450   11.5370 C.3    93  THR93       0.0376
     68  N         -7.8900   -7.7360   13.6840 N.am   94  GLY94      -0.1942
     69  CA        -7.7760   -9.0320   14.3260 C.3    94  GLY94       0.2014
     70  C         -8.2840  -10.1220   13.3980 C.2    94  GLY94       0.2639
     71  O         -7.9590  -11.2950   13.5720 O.2    94  GLY94      -0.2714
     72  N         -9.0800   -9.7330   12.4050 N.am   95  GLN95      -0.1963
     73  CA        -9.6280  -10.6900   11.4450 C.3    95  GLN95       0.1733
     74  C         -8.6510  -10.8670   10.2810 C.2    95  GLN95       0.2616
     75  O         -8.0200   -9.9060    9.8340 O.2    95  GLN95      -0.2715
     76  CB       -10.9790  -10.2020   10.9150 C.3    95  GLN95       0.0408
     77  CG       -12.0270   -9.8910   11.9920 C.3    95  GLN95       0.0908
     78  CD       -12.2600  -11.0470   12.9530 C.2    95  GLN95       0.2608
     79  OE1      -12.3730  -12.2040   12.5420 O.2    95  GLN95      -0.2717
     80  NE2      -12.3500  -10.7350   14.2420 N.am   95  GLN95      -0.0878
     81  N         -8.5280  -12.0950    9.7890 N.am   96  TRP96      -0.1960
     82  CA        -7.6150  -12.3800    8.6850 C.3    96  TRP96       0.1771
     83  C         -7.9090  -13.7680    8.1280 C.2    96  TRP96       0.2620
     84  O         -8.6300  -14.5500    8.7470 O.2    96  TRP96      -0.2715
     85  CB        -6.1680  -12.3590    9.1790 C.3    96  TRP96       0.0590
     86  CG        -5.8230  -13.5600   10.0400 C.ar   96  TRP96       0.0006
     87  CD1       -6.1580  -13.7590   11.3520 C.ar   96  TRP96       0.0946
     88  CD2       -5.1280  -14.7450    9.6210 C.ar   96  TRP96       0.0152
     89  NE1       -5.7170  -14.9970   11.7730 N.ar   96  TRP96      -0.2442
     90  CE2       -5.0840  -15.6220   10.7310 C.ar   96  TRP96       0.0810
     91  CE3       -4.5410  -15.1530    8.4130 C.ar   96  TRP96       0.0012
     92  CZ2       -4.4740  -16.8820   10.6690 C.ar   96  TRP96       0.0191
     93  CZ3       -3.9350  -16.4050    8.3520 C.ar   96  TRP96       0.0001
     94  CH2       -3.9080  -17.2540    9.4740 C.ar   96  TRP96       0.0015
     95  N         -7.3560  -14.0750    6.9580 N.am   97  ARG97      -0.1963
     96  CA        -7.5520  -15.4000    6.3820 C.3    97  ARG97       0.1729
     97  C         -6.5720  -15.6720    5.2570 C.2    97  ARG97       0.2616
     98  O         -6.1070  -14.7550    4.5880 O.2    97  ARG97      -0.2715
     99  CB        -8.9890  -15.5760    5.8580 C.3    97  ARG97       0.0348
    100  CG        -9.2950  -14.8940    4.5260 C.3    97  ARG97       0.0492
    101  CD       -10.6380  -15.3730    3.9650 C.3    97  ARG97       0.2205
    102  NE       -10.9080  -14.8690    2.6170 N.pl3  97  ARG97      -0.0865
    103  CZ       -11.3310  -13.6390    2.3420 C.cat  97  ARG97       0.5346
    104  NH1      -11.5410  -12.7680    3.3210 N.pl3  97  ARG97       0.1354
    105  NH2      -11.5420  -13.2740    1.0840 N.pl3  97  ARG97       0.1354
    106  N         -6.2480  -16.9430    5.0670 N.am   98  THR98      -0.1951
    107  CA        -5.3500  -17.3370    3.9950 C.3    98  THR98       0.1897
    108  C         -6.2320  -17.4830    2.7630 C.2    98  THR98       0.2313
    109  O         -7.2640  -18.1600    2.8120 O.2    98  THR98      -0.2863
    110  CB        -4.6460  -18.6680    4.3310 C.3    98  THR98       0.1794
    111  OG1       -3.6280  -18.4210    5.3100 O.3    98  THR98      -0.2208
    112  CG2       -4.0170  -19.2880    3.0820 C.3    98  THR98       0.0378
    113  N         -3.7420  -21.3190    0.0190 N.3   101  GLU101     -0.1231
    114  CA        -2.9920  -22.1860    0.9250 C.3   101  GLU101      0.1699
    115  C         -1.5210  -22.2690    0.5640 C.2   101  GLU101      0.2593
    116  O         -1.1660  -22.4960   -0.5920 O.2   101  GLU101     -0.2718
    117  CB        -3.5950  -23.5960    0.9440 C.3   101  GLU101      0.0402
    118  CG        -3.0820  -24.5010    2.0740 C.3   101  GLU101      0.1161
    119  CD        -1.6220  -24.9120    1.9120 C.2   101  GLU101      0.3649
    120  OE1       -1.2430  -25.3280    0.7960 O.co2 101  GLU101     -0.2457
    121  OE2       -0.8570  -24.8350    2.9010 O.co2 101  GLU101     -0.2457
    122  N         -0.6750  -22.0680    1.5690 N.am  102  GLY102     -0.1942
    123  CA         0.7630  -22.1310    1.3780 C.3   102  GLY102      0.2014
    124  C          1.3850  -20.9840    0.6070 C.2   102  GLY102      0.2639
    125  O          2.6060  -20.9390    0.4480 O.2   102  GLY102     -0.2714
    126  N          0.5660  -20.0390    0.1550 N.am  103  VAL103     -0.1963
    127  CA         1.0780  -18.9240   -0.6350 C.3   103  VAL103      0.1727
    128  C          0.7830  -17.5110   -0.1420 C.2   103  VAL103      0.2616
    129  O          1.6790  -16.6730   -0.0710 O.2   103  VAL103     -0.2715
    130  CB         0.5500  -19.0130   -2.0900 C.3   103  VAL103      0.0290
    131  CG1        1.0980  -17.8610   -2.9250 C.3   103  VAL103      0.0023
    132  CG2        0.9270  -20.3480   -2.7000 C.3   103  VAL103      0.0023
    133  N         -0.4690  -17.2370    0.1970 N.am  104  MET104     -0.1963
    134  CA        -0.8250  -15.8850    0.5980 C.3   104  MET104      0.1736
    135  C         -1.9990  -15.7960    1.5560 C.2   104  MET104      0.2617
    136  O         -2.9610  -16.5520    1.4530 O.2   104  MET104     -0.2715
    137  CB        -1.1530  -15.0730   -0.6570 C.3   104  MET104      0.0427
    138  CG        -1.4740  -13.5990   -0.4280 C.3   104  MET104      0.0599
    139  SD        -0.0330  -12.6680    0.1210 S.3   104  MET104     -0.1393
    140  CE         1.0390  -12.8150   -1.3300 C.3   104  MET104      0.0692
    141  N         -1.9040  -14.8440    2.4750 N.am  105  SER105     -0.1950
    142  CA        -2.9460  -14.5890    3.4520 C.3   105  SER105      0.1924
    143  C         -3.2330  -13.0910    3.3790 C.2   105  SER105      0.2314
    144  O         -2.4530  -12.3240    2.8030 O.2   105  SER105     -0.2863
    145  CB        -2.4630  -14.9540    4.8640 C.3   105  SER105      0.2116
    146  OG        -1.9490  -16.2750    4.9180 O.3   105  SER105     -0.2180
@<TRIPOS>BOND
     1   131   130    1
     2   132   130    1
     3   130   127    1
     4   140   139    1
     5   137   138    1
     6   137   134    1
     7   127   128    1
     8   127   126    1
     9   116   115    2
    10   138   139    1
    11   128   129    2
    12   128   133   am
    13   113   114    1
    14   126   124   am
    15   133   134    1
    16   125   124    2
    17   115   114    1
    18   115   122   am
    19   134   135    1
    20   124   123    1
    21   120   119   ar
    22   114   117    1
    23   117   118    1
    24   105   103    1
    25   123   122    1
    26   136   135    2
    27   135   141   am
    28   119   118    1
    29   119   121   ar
    30   103   102    2
    31   103   104    1
    32   141   142    1
    33   102   101    1
    34     7     6    1
    35     7     1    1
    36   108   109    2
    37   108   107    1
    38   144   143    2
    39   112   110    1
    40     6     5    1
    41     5     2    1
    42     1     2    1
    43   143   142    1
    44   142   145    1
    45    29    27   ar
    46    29    28   ar
    47     2     3    1
    48   101   100    1
    49   107   110    1
    50   107   106    1
    51   110   111    1
    52    27    25   ar
    53   100    99    1
    54    98    97    2
    55    28    26   ar
    56   145   146    1
    57   106    97   am
    58    97    96    1
    59     3     4    2
    60     3     8   am
    61    25    24   ar
    62    25    23   ar
    63    99    96    1
    64    26    23   ar
    65     8     9    1
    66    96    95    1
    67    24    22   ar
    68    23    21   ar
    69    95    83   am
    70    11    10    2
    71     9    10    1
    72     9    12    1
    73    22    21   ar
    74    13    12    1
    75    13    14    1
    76    13    15    1
    77    21    20    1
    78    10    16   am
    79    83    82    1
    80    83    84    2
    81    93    91   ar
    82    93    94   ar
    83    91    88   ar
    84    16    17    1
    85    82    85    1
    86    82    81    1
    87    17    20    1
    88    17    18    1
    89    85    86    1
    90    94    92   ar
    91    88    86   ar
    92    88    90   ar
    93    81    74   am
    94    75    74    2
    95    86    87   ar
    96    18    19    2
    97    18    30   am
    98    74    73    1
    99    92    90   ar
   100    90    89   ar
   101    76    73    1
   102    76    77    1
   103    30    31    1
   104    87    89   ar
   105    73    72    1
   106    66    65    1
   107    67    65    1
   108    77    78    1
   109    31    32    1
   110    31    34    1
   111    33    32    2
   112    65    62    1
   113    72    70   am
   114    79    78    2
   115    61    62    1
   116    32    36   am
   117    78    80   am
   118    34    35    1
   119    62    63    1
   120    70    71    2
   121    70    69    1
   122    36    37    1
   123    68    63   am
   124    68    69    1
   125    37    40    1
   126    37    38    1
   127    63    64    2
   128    42    41    2
   129    52    53    1
   130    40    41    1
   131    38    39    2
   132    38    44   am
   133    60    58   am
   134    41    43   am
   135    44    45    1
   136    53    54    1
   137    53    56    1
   138    46    47    2
   139    46    45    1
   140    58    59    2
   141    58    57    1
   142    54    55    2
   143    45    48    1
   144    57    56    1
   145    48    49    1
   146    49    51   ar
   147    49    50   ar
