@<TRIPOS>MOLECULE
tmp/1zhsA00.pdb
 146 147 0 0 0
SMALL
GASTEIGER

@<TRIPOS>ATOM
      1  N          4.8330    4.8440  -14.2350 N.3    11  PRO11      -0.2102
      2  CA         5.7230    5.7930  -14.9040 C.3    11  PRO11       0.1504
      3  C          5.1410    7.2050  -15.0010 C.2    11  PRO11       0.2576
      4  O          3.9730    7.3810  -15.3420 O.2    11  PRO11      -0.2718
      5  CB         5.9230    5.1630  -16.2800 C.3    11  PRO11       0.0282
      6  CG         4.5800    4.4850  -16.5210 C.3    11  PRO11       0.0208
      7  CD         4.3360    3.8240  -15.1730 C.3    11  PRO11       0.0893
      8  N          5.9600    8.1970  -14.6750 N.am   12  LEU12      -0.1966
      9  CA         5.5700    9.6020  -14.7760 C.3    12  LEU12       0.1728
     10  C          6.5250   10.1500  -15.8390 C.2    12  LEU12       0.2616
     11  O          7.7470   10.0540  -15.7060 O.2    12  LEU12      -0.2715
     12  CB         5.7320   10.3050  -13.4230 C.3    12  LEU12       0.0311
     13  CG         4.7250    9.8070  -12.3730 C.3    12  LEU12       0.0022
     14  CD1        4.9830   10.4810  -11.0370 C.3    12  LEU12       0.0001
     15  CD2        3.3000   10.0910  -12.8460 C.3    12  LEU12       0.0001
     16  N          5.9560   10.7110  -16.9020 N.am   13  TRP13      -0.1960
     17  CA         6.7420   11.1780  -18.0410 C.3    13  TRP13       0.1771
     18  C          7.3220   12.5860  -18.0450 C.2    13  TRP13       0.2620
     19  O          8.0780   12.9420  -18.9550 O.2    13  TRP13      -0.2715
     20  CB         5.9150   10.9520  -19.3130 C.3    13  TRP13       0.0590
     21  CG         5.4120    9.5380  -19.4010 C.ar   13  TRP13       0.0006
     22  CD1        4.1390    9.0960  -19.1600 C.ar   13  TRP13       0.0946
     23  CD2        6.1940    8.3750  -19.6900 C.ar   13  TRP13       0.0152
     24  NE1        4.0840    7.7240  -19.2790 N.ar   13  TRP13      -0.2442
     25  CE2        5.3310    7.2570  -19.6040 C.ar   13  TRP13       0.0810
     26  CE3        7.5420    8.1680  -20.0130 C.ar   13  TRP13       0.0012
     27  CZ2        5.7760    5.9470  -19.8300 C.ar   13  TRP13       0.0191
     28  CZ3        7.9850    6.8670  -20.2390 C.ar   13  TRP13       0.0001
     29  CH2        7.1010    5.7730  -20.1450 C.ar   13  TRP13       0.0015
     30  N          6.9870   13.3830  -17.0380 N.am   14  SER14      -0.1936
     31  CA         7.5030   14.7420  -16.9550 C.3    14  SER14       0.2055
     32  C          7.2100   15.2940  -15.5770 C.2    14  SER14       0.2643
     33  O          6.3180   14.8090  -14.8890 O.2    14  SER14      -0.2714
     34  CB         6.8190   15.6390  -17.9830 C.3    14  SER14       0.2130
     35  OG         5.4660   15.8640  -17.6210 O.3    14  SER14      -0.2179
     36  N          7.9540   16.3190  -15.1820 N.am   15  ASN15      -0.1957
     37  CA         7.7270   16.9450  -13.8900 C.3    15  ASN15       0.1819
     38  C          6.3130   17.5180  -13.8360 C.2    15  ASN15       0.2621
     39  O          5.6600   17.4810  -12.7950 O.2    15  ASN15      -0.2715
     40  CB         8.7410   18.0620  -13.6590 C.3    15  ASN15       0.1195
     41  CG         8.5220   18.7750  -12.3430 C.2    15  ASN15       0.2630
     42  OD1        8.3540   19.9960  -12.3060 O.2    15  ASN15      -0.2716
     43  ND2        8.5170   18.0180  -11.2560 N.am   15  ASN15      -0.0877
     44  N          5.8410   18.0510  -14.9590 N.am   16  ALA16      -0.1977
     45  CA         4.4970   18.6200  -15.0120 C.3    16  ALA16       0.1597
     46  C          3.4550   17.5670  -14.6430 C.2    16  ALA16       0.2287
     47  O          2.5130   17.8440  -13.8960 O.2    16  ALA16      -0.2864
     48  CB         4.2110   19.1790  -16.4110 C.3    16  ALA16       0.0319
     49  N          3.8740   16.6360  -10.8020 N.3    19  GLN19      -0.1245
     50  CA         3.3670   17.6310   -9.8640 C.3    19  GLN19       0.1566
     51  C          1.8490   17.5780   -9.7480 C.2    19  GLN19       0.2260
     52  O          1.2840   17.9350   -8.7130 O.2    19  GLN19      -0.2867
     53  CB         3.8120   19.0350  -10.2830 C.3    19  GLN19       0.0367
     54  CG         5.3190   19.2520  -10.2170 C.3    19  GLN19       0.0905
     55  CD         5.9040   18.9120   -8.8530 C.2    19  GLN19       0.2608
     56  OE1        5.2990   19.1840   -7.8150 O.2    19  GLN19      -0.2717
     57  NE2        7.0950   18.3260   -8.8520 N.am   19  GLN19      -0.0878
     58  N          5.1870   16.1020   -1.3140 N.3    34  THR34      -0.1203
     59  CA         6.2030   17.0990   -0.9960 C.3    34  THR34       0.1994
     60  C          6.7080   17.8720   -2.2090 C.2    34  THR34       0.2618
     61  O          7.3440   18.9180   -2.0610 O.2    34  THR34      -0.2717
     62  CB         7.4330   16.4530   -0.3500 C.3    34  THR34       0.1784
     63  OG1        8.1720   15.7440   -1.3550 O.3    34  THR34      -0.2211
     64  CG2        7.0150   15.4800    0.7500 C.3    34  THR34       0.0376
     65  N          6.4440   17.3460   -3.4000 N.am   35  GLY35      -0.1942
     66  CA         6.9080   17.9970   -4.6120 C.3    35  GLY35       0.2014
     67  C          8.1160   17.2710   -5.1800 C.2    35  GLY35       0.2639
     68  O          8.4650   17.4410   -6.3510 O.2    35  GLY35      -0.2714
     69  N          8.7560   16.4540   -4.3490 N.am   36  GLN36      -0.1963
     70  CA         9.9300   15.6970   -4.7730 C.3    36  GLN36       0.1733
     71  C          9.5000   14.3600   -5.3620 C.2    36  GLN36       0.2616
     72  O          8.5970   13.7060   -4.8440 O.2    36  GLN36      -0.2715
     73  CB        10.8660   15.4540   -3.5870 C.3    36  GLN36       0.0408
     74  CG        11.3980   16.7210   -2.9360 C.3    36  GLN36       0.0908
     75  CD        12.1660   17.6020   -3.9100 C.2    36  GLN36       0.2608
     76  OE1       13.0760   17.1380   -4.6000 O.2    36  GLN36      -0.2717
     77  NE2       11.8050   18.8830   -3.9630 N.am   36  GLN36      -0.0878
     78  N         10.1460   13.9570   -6.4510 N.am   37  TRP37      -0.1960
     79  CA         9.8170   12.6930   -7.0990 C.3    37  TRP37       0.1771
     80  C         10.9360   12.3300   -8.0630 C.2    37  TRP37       0.2620
     81  O         11.7830   13.1630   -8.3830 O.2    37  TRP37      -0.2715
     82  CB         8.5110   12.8210   -7.8890 C.3    37  TRP37       0.0590
     83  CG         8.6680   13.6150   -9.1680 C.ar   37  TRP37       0.0006
     84  CD1        8.7000   14.9780   -9.2990 C.ar   37  TRP37       0.0946
     85  CD2        8.8620   13.0810  -10.4840 C.ar   37  TRP37       0.0152
     86  NE1        8.9040   15.3220  -10.6200 N.ar   37  TRP37      -0.2442
     87  CE2        9.0070   14.1770  -11.3650 C.ar   37  TRP37       0.0810
     88  CE3        8.9280   11.7800  -11.0050 C.ar   37  TRP37       0.0012
     89  CZ2        9.2110   14.0100  -12.7440 C.ar   37  TRP37       0.0191
     90  CZ3        9.1320   11.6170  -12.3730 C.ar   37  TRP37       0.0001
     91  CH2        9.2720   12.7280  -13.2250 C.ar   37  TRP37       0.0015
     92  N         10.9410   11.0880   -8.5270 N.am   38  THR38      -0.1937
     93  CA        11.9560   10.6720   -9.4760 C.3    38  THR38       0.2028
     94  C         11.5950    9.3670  -10.1640 C.2    38  THR38       0.2642
     95  O         10.8700    8.5290   -9.6180 O.2    38  THR38      -0.2714
     96  CB        13.3340   10.5040   -8.7980 C.3    38  THR38       0.1808
     97  OG1       14.3480   10.4240   -9.8050 O.3    38  THR38      -0.2208
     98  CG2       13.3720    9.2310   -7.9570 C.3    38  THR38       0.0379
     99  N         12.0890    9.2040  -11.3830 N.am   39  THR39      -0.1950
    100  CA        11.8480    7.9690  -12.0990 C.3    39  THR39       0.1897
    101  C         12.9170    7.0200  -11.5820 C.2    39  THR39       0.2313
    102  O         14.0880    7.4010  -11.4690 O.2    39  THR39      -0.2863
    103  CB        11.9730    8.1730  -13.6220 C.3    39  THR39       0.1794
    104  OG1       10.7940    8.8370  -14.0990 O.3    39  THR39      -0.2208
    105  CG2       12.1250    6.8400  -14.3350 C.3    39  THR39       0.0378
    106  N         12.9350    3.5210  -12.6950 N.3    41  VAL41      -0.1231
    107  CA        13.1780    2.5380  -13.7490 C.3    41  VAL41       0.1692
    108  C         12.7700    3.2480  -15.0320 C.2    41  VAL41       0.2592
    109  O         11.6020    3.5640  -15.2200 O.2    41  VAL41      -0.2718
    110  CB        12.3270    1.2560  -13.5780 C.3    41  VAL41       0.0266
    111  CG1       12.5890    0.3090  -14.7440 C.3    41  VAL41       0.0020
    112  CG2       12.6750    0.5640  -12.2620 C.3    41  VAL41       0.0020
    113  N         13.7360    3.5050  -15.9080 N.am   42  GLU42      -0.1966
    114  CA        13.4660    4.2280  -17.1500 C.3    42  GLU42       0.1733
    115  C         12.2300    3.7360  -17.8980 C.2    42  GLU42       0.2617
    116  O         12.0840    2.5440  -18.1680 O.2    42  GLU42      -0.2715
    117  CB        14.6940    4.1810  -18.0700 C.3    42  GLU42       0.0429
    118  CG        14.9190    5.4770  -18.8600 C.3    42  GLU42       0.1163
    119  CD        13.8380    5.7390  -19.8950 C.2    42  GLU42       0.3649
    120  OE1       13.6340    6.9160  -20.2820 O.co2  42  GLU42      -0.2457
    121  OE2       13.1970    4.7600  -20.3310 O.co2  42  GLU42      -0.2457
    122  N         11.3400    4.6730  -18.2160 N.am   43  SER43      -0.1936
    123  CA        10.1010    4.3870  -18.9380 C.3    43  SER43       0.2055
    124  C          9.2270    3.2860  -18.3380 C.2    43  SER43       0.2643
    125  O          8.4000    2.7040  -19.0410 O.2    43  SER43      -0.2714
    126  CB        10.4140    4.0280  -20.3990 C.3    43  SER43       0.2130
    127  OG        10.8420    5.1680  -21.1230 O.3    43  SER43      -0.2179
    128  N          9.3760    3.0150  -17.0440 N.am   44  ALA44      -0.1963
    129  CA         8.5840    1.9510  -16.4400 C.3    44  ALA44       0.1728
    130  C          8.0420    2.2560  -15.0530 C.2    44  ALA44       0.2616
    131  O          6.9510    1.8090  -14.7020 O.2    44  ALA44      -0.2715
    132  CB         9.4060    0.6610  -16.3980 C.3    44  ALA44       0.0334
    133  N          8.7920    3.0130  -14.2630 N.am   45  MET45      -0.1963
    134  CA         8.3400    3.3120  -12.9110 C.3    45  MET45       0.1736
    135  C          8.9490    4.5750  -12.3240 C.2    45  MET45       0.2617
    136  O         10.1380    4.8580  -12.5040 O.2    45  MET45      -0.2715
    137  CB         8.6410    2.1180  -11.9950 C.3    45  MET45       0.0427
    138  CG         8.1830    2.2890  -10.5460 C.3    45  MET45       0.0599
    139  SD         6.3940    2.4350  -10.3490 S.3    45  MET45      -0.1393
    140  CE         5.8400    0.8020  -10.9320 C.3    45  MET45       0.0692
    141  N          8.1090    5.3280  -11.6220 N.am   46  SER46      -0.1950
    142  CA         8.5130    6.5640  -10.9660 C.3    46  SER46       0.1924
    143  C          7.9320    6.5400   -9.5540 C.2    46  SER46       0.2314
    144  O          6.9490    5.8440   -9.2940 O.2    46  SER46      -0.2863
    145  CB         7.9500    7.7750  -11.7150 C.3    46  SER46       0.2116
    146  OG         8.3370    7.7750  -13.0770 O.3    46  SER46      -0.2180
@<TRIPOS>BOND
     1   127   126    1
     2   126   123    1
     3   121   119   ar
     4   120   119   ar
     5    28    29   ar
     6    28    26   ar
     7    29    27   ar
     8    26    23   ar
     9   119   118    1
    10    27    25   ar
    11    23    25   ar
    12    23    21   ar
    13    25    24   ar
    14    21    20    1
    15    21    22   ar
    16    20    17    1
    17    24    22   ar
    18   125   124    2
    19    19    18    2
    20   123   124    1
    21   123   122    1
    22   118   117    1
    23   124   128   am
    24   122   115   am
    25   116   115    2
    26   117   114    1
    27    18    17    1
    28    18    30   am
    29    17    16    1
    30    34    35    1
    31    34    31    1
    32   115   114    1
    33   114   113    1
    34   128   129    1
    35    30    31    1
    36    31    32    1
    37    16    10   am
    38     6     5    1
    39     6     7    1
    40   129   132    1
    41   129   130    1
    42    48    45    1
    43     5     2    1
    44   113   108   am
    45    10    11    2
    46    10     9    1
    47    32    36   am
    48    32    33    2
    49     4     3    2
    50   109   108    2
    51    36    37    1
    52     7     1    1
    53   130   131    2
    54   130   133   am
    55   108   107    1
    56    45    44    1
    57    45    46    1
    58     3     2    1
    59     3     8   am
    60    44    38   am
    61     2     1    1
    62     9     8    1
    63     9    12    1
    64   111   110    1
    65    46    47    2
    66   105   103    1
    67   133   134    1
    68   104   103    1
    69    37    38    1
    70    37    40    1
    71    38    39    2
    72   107   110    1
    73   107   106    1
    74    40    41    1
    75   103   100    1
    76   110   112    1
    77    12    13    1
    78    91    89   ar
    79    91    90   ar
    80   146   145    1
    81   134   135    1
    82   134   137    1
    83    15    13    1
    84    89    87   ar
    85   136   135    2
    86    90    88   ar
    87    13    14    1
    88    41    42    2
    89    41    43   am
    90   135   141   am
    91   100   101    1
    92   100    99    1
    93   137   138    1
    94   145   142    1
    95   141   142    1
    96   101   102    2
    97    99    94   am
    98    87    86   ar
    99    87    85   ar
   100    88    85   ar
   101   142   143    1
   102   140   139    1
   103    49    50    1
   104    86    84   ar
   105   138   139    1
   106    85    83   ar
   107    53    54    1
   108    53    50    1
   109    54    55    1
   110    94    95    2
   111    94    93    1
   112    50    51    1
   113    97    96    1
   114    51    52    2
   115   143   144    2
   116    93    96    1
   117    93    92    1
   118    84    83   ar
   119    83    82    1
   120    55    57   am
   121    55    56    2
   122    96    98    1
   123    92    80   am
   124    81    80    2
   125    80    79    1
   126    82    79    1
   127    79    78    1
   128    78    71   am
   129    68    67    2
   130    71    72    2
   131    71    70    1
   132    67    66    1
   133    67    69   am
   134    70    69    1
   135    70    73    1
   136    66    65    1
   137    76    75    2
   138    77    75   am
   139    75    74    1
   140    73    74    1
   141    65    60   am
   142    60    61    2
   143    60    59    1
   144    63    62    1
   145    58    59    1
   146    59    62    1
   147    62    64    1
