@<TRIPOS>MOLECULE
tmp/1zhtA00.pdb
 253 240 0 0 0
SMALL
GASTEIGER

@<TRIPOS>ATOM
      1  N         52.0970   31.1200   10.1600 N.3    12  TRP12      -0.1241
      2  CA        52.5320   30.1810   11.1880 C.3    12  TRP12       0.1605
      3  C         53.6180   29.2440   10.6580 C.2    12  TRP12       0.2264
      4  O         54.5620   28.9310   11.3710 O.2    12  TRP12      -0.2867
      5  CB        51.3610   29.3670   11.7340 C.3    12  TRP12       0.0550
      6  CG        51.6670   28.7850   13.0960 C.ar   12  TRP12       0.0003
      7  CD1       51.7950   27.4630   13.4240 C.ar   12  TRP12       0.0946
      8  CD2       51.9010   29.5190   14.3080 C.ar   12  TRP12       0.0152
      9  NE1       52.0930   27.3290   14.7660 N.ar   12  TRP12      -0.2442
     10  CE2       52.1630   28.5720   15.3300 C.ar   12  TRP12       0.0810
     11  CE3       51.9160   30.8810   14.6300 C.ar   12  TRP12       0.0012
     12  CZ2       52.4340   28.9490   16.6530 C.ar   12  TRP12       0.0191
     13  CZ3       52.1870   31.2590   15.9470 C.ar   12  TRP12       0.0001
     14  CH2       52.4410   30.2930   16.9410 C.ar   12  TRP12       0.0015
     15  N         56.7580   31.0020   10.7640 N.3    15  PHE15      -0.1241
     16  CA        57.1630   31.1570   12.1540 C.3    15  PHE15       0.1605
     17  C         57.8640   29.8840   12.6480 C.2    15  PHE15       0.2264
     18  O         58.9610   29.9450   13.2080 O.2    15  PHE15      -0.2867
     19  CB        55.9400   31.4270   13.0380 C.3    15  PHE15       0.0534
     20  CG        56.2490   31.4230   14.5080 C.ar   15  PHE15      -0.0203
     21  CD1       57.0990   32.3840   15.0500 C.ar   15  PHE15      -0.0042
     22  CD2       55.7050   30.4630   15.3490 C.ar   15  PHE15      -0.0042
     23  CE1       57.3960   32.3830   16.4040 C.ar   15  PHE15      -0.0003
     24  CE2       55.9990   30.4580   16.7070 C.ar   15  PHE15      -0.0003
     25  CZ        56.8470   31.4210   17.2330 C.ar   15  PHE15      -0.0000
     26  N         64.2930   35.0810   22.2530 N.3    26  LEU26      -0.1245
     27  CA        62.9040   34.8990   21.8420 C.3    26  LEU26       0.1561
     28  C         62.3970   35.9970   20.9070 C.2    26  LEU26       0.2260
     29  O         61.5000   35.7660   20.0990 O.2    26  LEU26      -0.2867
     30  CB        62.0020   34.8070   23.0740 C.3    26  LEU26       0.0270
     31  CG        62.2850   33.6330   24.0150 C.3    26  LEU26       0.0019
     32  CD1       61.4400   33.7660   25.2630 C.3    26  LEU26       0.0001
     33  CD2       61.9930   32.3200   23.3060 C.3    26  LEU26       0.0001
     34  N         62.2910   35.6860   16.9470 N.3    29  LEU29      -0.1245
     35  CA        61.2450   34.8890   16.3090 C.3    29  LEU29       0.1561
     36  C         60.2310   35.7300   15.5490 C.2    29  LEU29       0.2260
     37  O         59.6780   36.6950   16.0840 O.2    29  LEU29      -0.2867
     38  CB        60.5210   34.0400   17.3610 C.3    29  LEU29       0.0270
     39  CG        61.4010   33.0370   18.1140 C.3    29  LEU29       0.0019
     40  CD1       60.5640   32.2810   19.1280 C.3    29  LEU29       0.0001
     41  CD2       62.0550   32.0700   17.1250 C.3    29  LEU29       0.0001
     42  N         57.1790   36.1150   15.0000 N.3    31  ALA31      -0.1245
     43  CA        55.8440   35.8040   15.4910 C.3    31  ALA31       0.1562
     44  C         54.8280   36.6280   14.7050 C.2    31  ALA31       0.2260
     45  O         54.9350   37.8490   14.6300 O.2    31  ALA31      -0.2867
     46  CB        55.7470   36.1180   16.9750 C.3    31  ALA31       0.0290
     47  N         49.5060   36.2750   16.9610 N.3    35  ILE35      -0.1245
     48  CA        49.9940   35.6340   18.1750 C.3    35  ILE35       0.1561
     49  C         50.7130   36.6580   19.0620 C.2    35  ILE35       0.2260
     50  O         51.4060   36.2950   20.0160 O.2    35  ILE35      -0.2867
     51  CB        50.9600   34.4570   17.8410 C.3    35  ILE35       0.0252
     52  CG1       50.9330   33.4260   18.9710 C.3    35  ILE35       0.0019
     53  CG2       52.3780   34.9640   17.6280 C.3    35  ILE35       0.0019
     54  CD1       49.5810   32.7510   19.1350 C.3    35  ILE35       0.0001
     55  N         55.8370   42.8040   29.3910 N.3    41  LEU41      -0.1245
     56  CA        56.1880   41.9430   30.5110 C.3    41  LEU41       0.1561
     57  C         56.3430   42.7030   31.8180 C.2    41  LEU41       0.2260
     58  O         56.3290   42.0870   32.8840 O.2    41  LEU41      -0.2867
     59  CB        57.4870   41.1880   30.2110 C.3    41  LEU41       0.0270
     60  CG        57.3290   39.9730   29.2900 C.3    41  LEU41       0.0019
     61  CD1       58.6650   39.5900   28.7080 C.3    41  LEU41       0.0001
     62  CD2       56.7140   38.8120   30.1180 C.3    41  LEU41       0.0001
     63  N         53.4690   42.0230   34.1740 N.3    44  PHE44      -0.1241
     64  CA        53.3180   40.7290   34.8470 C.3    44  PHE44       0.1605
     65  C         53.5560   40.7170   36.3460 C.2    44  PHE44       0.2264
     66  O         53.1120   39.7990   37.0360 O.2    44  PHE44      -0.2867
     67  CB        54.1990   39.6690   34.1700 C.3    44  PHE44       0.0534
     68  CG        53.6770   39.2260   32.8240 C.ar   44  PHE44      -0.0203
     69  CD1       53.1850   40.1580   31.9110 C.ar   44  PHE44      -0.0042
     70  CD2       53.6680   37.8720   32.4650 C.ar   44  PHE44      -0.0042
     71  CE1       52.6960   39.7680   30.6760 C.ar   44  PHE44      -0.0003
     72  CE2       53.1780   37.4760   31.2270 C.ar   44  PHE44      -0.0003
     73  CZ        52.6920   38.4270   30.3330 C.ar   44  PHE44      -0.0000
     74  N         51.3220   39.0390   41.1330 N.3    48  TRP48      -0.1241
     75  CA        51.6430   38.5630   42.4750 C.3    48  TRP48       0.1605
     76  C         50.6170   38.9560   43.5440 C.2    48  TRP48       0.2264
     77  O         50.7140   38.4950   44.6810 O.2    48  TRP48      -0.2867
     78  CB        53.0260   39.0600   42.9110 C.3    48  TRP48       0.0550
     79  CG        54.1680   38.3410   42.2660 C.ar   48  TRP48       0.0003
     80  CD1       54.8320   38.7090   41.1480 C.ar   48  TRP48       0.0946
     81  CD2       54.7900   37.1390   42.7270 C.ar   48  TRP48       0.0152
     82  NE1       55.8460   37.8170   40.8730 N.ar   48  TRP48      -0.2442
     83  CE2       55.8400   36.8400   41.8330 C.ar   48  TRP48       0.0810
     84  CE3       54.5640   36.2840   43.8090 C.ar   48  TRP48       0.0012
     85  CZ2       56.6660   35.7220   41.9880 C.ar   48  TRP48       0.0191
     86  CZ3       55.3890   35.1670   43.9660 C.ar   48  TRP48       0.0001
     87  CH2       56.4270   34.9000   43.0590 C.ar   48  TRP48       0.0015
     88  N         49.3230   34.5990   36.9580 N.3    98  GLN98      -0.1231
     89  CA        50.6190   34.5230   36.2960 C.3    98  GLN98       0.1698
     90  C         50.5990   33.7890   34.9560 C.2    98  GLN98       0.2592
     91  O         51.1450   34.2720   33.9650 O.2    98  GLN98      -0.2718
     92  CB        51.6370   33.8020   37.1900 C.3    98  GLN98       0.0381
     93  CG        51.9340   34.4470   38.5240 C.3    98  GLN98       0.0905
     94  CD        52.9210   35.5940   38.4480 C.2    98  GLN98       0.2608
     95  OE1       53.4110   36.0560   39.4680 O.2    98  GLN98      -0.2717
     96  NE2       53.2130   36.0610   37.2460 N.am   98  GLN98      -0.0878
     97  N         49.9690   32.6220   34.9330 N.am   99  TYR99      -0.1976
     98  CA        50.0170   31.7910   33.7380 C.3    99  TYR99       0.1639
     99  C         48.7970   31.5140   32.8620 C.2    99  TYR99       0.2290
    100  O         48.9380   30.8610   31.8270 O.2    99  TYR99      -0.2864
    101  CB        50.6600   30.4560   34.1460 C.3    99  TYR99       0.0560
    102  CG        51.9250   30.6390   34.9710 C.ar   99  TYR99      -0.0198
    103  CD1       51.9490   30.3690   36.3440 C.ar   99  TYR99      -0.0009
    104  CD2       53.0910   31.1320   34.3890 C.ar   99  TYR99      -0.0009
    105  CE1       53.1050   30.5970   37.1000 C.ar   99  TYR99       0.0417
    106  CE2       54.2440   31.3610   35.1400 C.ar   99  TYR99       0.0417
    107  CZ        54.2380   31.0950   36.4880 C.ar   99  TYR99       0.1957
    108  OH        55.3580   31.3570   37.2350 O.3    99  TYR99      -0.2866
    109  N         46.4250   35.4110   29.8270 N.3   102  ARG102     -0.1245
    110  CA        46.3130   35.6430   28.3770 C.3   102  ARG102      0.1563
    111  C         45.3830   34.6540   27.6680 C.2   102  ARG102      0.2260
    112  O         44.7740   34.9790   26.6500 O.2   102  ARG102     -0.2867
    113  CB        47.6940   35.6330   27.7070 C.3   102  ARG102      0.0307
    114  CG        48.5170   36.8960   27.9530 C.3   102  ARG102      0.0489
    115  CD        48.9610   36.9480   29.4110 C.3   102  ARG102      0.2205
    116  NE        49.7760   35.7820   29.7310 N.pl3 102  ARG102     -0.0865
    117  CZ        50.1490   35.4360   30.9610 C.cat 102  ARG102      0.5346
    118  NH1       49.7750   36.1810   31.9960 N.pl3 102  ARG102      0.1354
    119  NH2       50.8770   34.3390   31.1560 N.pl3 102  ARG102      0.1354
    120  N         48.0370   31.7710   25.0480 N.3   109  GLU109     -0.1231
    121  CA        49.2270   32.4620   25.4920 C.3   109  GLU109      0.1699
    122  C         49.7490   33.1190   24.2170 C.2   109  GLU109      0.2592
    123  O         49.6080   32.5570   23.1270 O.2   109  GLU109     -0.2718
    124  CB        50.2680   31.4840   26.0250 C.3   109  GLU109      0.0402
    125  CG        51.4640   32.1870   26.6330 C.3   109  GLU109      0.1161
    126  CD        51.0510   33.1380   27.7410 C.2   109  GLU109      0.3649
    127  OE1       50.7510   32.6400   28.8450 O.co2 109  GLU109     -0.2457
    128  OE2       51.0040   34.3680   27.5170 O.co2 109  GLU109     -0.2457
    129  N         50.3220   34.3100   24.3420 N.am  110  LYS110     -0.1966
    130  CA        50.8510   35.0170   23.1850 C.3   110  LYS110      0.1728
    131  C         52.1840   35.6800   23.5050 C.2   110  LYS110      0.2616
    132  O         52.6040   35.7260   24.6660 O.2   110  LYS110     -0.2715
    133  CB        49.8470   36.0560   22.6900 C.3   110  LYS110      0.0311
    134  CG        48.5820   35.4300   22.0960 C.3   110  LYS110      0.0038
    135  CD        47.7110   36.4550   21.3790 C.3   110  LYS110      0.0206
    136  CE        46.5110   35.7880   20.7160 C.3   110  LYS110      0.1093
    137  NZ        45.6830   36.7660   19.9440 N.3   110  LYS110     -0.1314
    138  N         52.8520   36.1940   22.4790 N.am  111  LYS111     -0.1964
    139  CA        54.1450   36.8310   22.6710 C.3   111  LYS111      0.1713
    140  C         53.9740   38.2070   23.2900 C.2   111  LYS111      0.2458
    141  O         53.3830   39.0980   22.6890 O.2   111  LYS111     -0.2730
    142  CB        54.8900   36.9590   21.3390 C.3   111  LYS111      0.0311
    143  CG        56.2770   37.5700   21.4750 C.3   111  LYS111      0.0038
    144  CD        56.9040   37.8530   20.1220 C.3   111  LYS111      0.0206
    145  CE        58.1700   38.6950   20.2720 C.3   111  LYS111      0.1093
    146  NZ        58.7240   39.1060   18.9500 N.3   111  LYS111     -0.1314
    147  N         54.4990   38.4010   24.5100 N.am  112  PRO112     -0.2727
    148  CA        54.3840   39.6940   25.1850 C.3   112  PRO112      0.1402
    149  C         55.3670   40.7050   24.6080 C.2   112  PRO112      0.2269
    150  O         56.3230   40.3330   23.9300 O.2   112  PRO112     -0.2865
    151  CB        54.6940   39.3450   26.6350 C.3   112  PRO112      0.0296
    152  CG        55.7530   38.2930   26.4850 C.3   112  PRO112      0.0237
    153  CD        55.1780   37.4170   25.3730 C.3   112  PRO112      0.0939
    154  N         60.4470   44.1600   40.9240 N.3   152  PHE152     -0.1241
    155  CA        59.1740   44.6760   41.4080 C.3   152  PHE152      0.1605
    156  C         59.0410   44.6690   42.9070 C.2   152  PHE152      0.2264
    157  O         59.7990   44.0110   43.6110 O.2   152  PHE152     -0.2867
    158  CB        58.0400   43.8320   40.8290 C.3   152  PHE152      0.0534
    159  CG        58.2410   42.3470   41.0270 C.ar  152  PHE152     -0.0203
    160  CD1       58.8920   41.5840   40.0620 C.ar  152  PHE152     -0.0042
    161  CD2       57.8300   41.7310   42.2010 C.ar  152  PHE152     -0.0042
    162  CE1       59.1340   40.2200   40.2690 C.ar  152  PHE152     -0.0003
    163  CE2       58.0640   40.3770   42.4220 C.ar  152  PHE152     -0.0003
    164  CZ        58.7180   39.6170   41.4570 C.ar  152  PHE152     -0.0000
    165  N         62.7280   39.0200   38.1010 N.3   167  ASN167     -0.1240
    166  CA        62.5540   37.8490   37.2750 C.3   167  ASN167      0.1653
    167  C         63.2090   37.9480   35.9150 C.2   167  ASN167      0.2266
    168  O         63.2850   39.0200   35.3160 O.2   167  ASN167     -0.2867
    169  CB        61.0490   37.6040   37.1080 C.3   167  ASN167      0.1155
    170  CG        60.7370   36.4970   36.1270 C.2   167  ASN167      0.2627
    171  OD1       60.8160   36.6790   34.9070 O.2   167  ASN167     -0.2716
    172  ND2       60.3740   35.3370   36.6550 N.am  167  ASN167     -0.0877
    173  N         64.3310   34.9510   32.4580 N.3   169  ILE169     -0.1245
    174  CA        64.2520   33.5790   31.9840 C.3   169  ILE169      0.1561
    175  C         65.3020   33.2550   30.9460 C.2   169  ILE169      0.2260
    176  O         66.0260   34.1250   30.4710 O.2   169  ILE169     -0.2867
    177  CB        62.8820   33.3140   31.3230 C.3   169  ILE169      0.0252
    178  CG1       62.7230   34.2250   30.1020 C.3   169  ILE169      0.0019
    179  CG2       61.7530   33.5710   32.3160 C.3   169  ILE169      0.0019
    180  CD1       61.5000   33.9200   29.2550 C.3   169  ILE169      0.0001
    181  N         63.9940   25.6610   22.5430 N.3   173  PHE173     -0.1241
    182  CA        62.9960   24.7540   21.9950 C.3   173  PHE173      0.1605
    183  C         63.5420   23.3360   21.8990 C.2   173  PHE173      0.2264
    184  O         64.7360   23.1430   21.6670 O.2   173  PHE173     -0.2867
    185  CB        62.5870   25.1850   20.5810 C.3   173  PHE173      0.0534
    186  CG        61.8660   26.4960   20.5250 C.ar  173  PHE173     -0.0203
    187  CD1       62.5690   27.6920   20.5970 C.ar  173  PHE173     -0.0042
    188  CD2       60.4820   26.5380   20.4170 C.ar  173  PHE173     -0.0042
    189  CE1       61.9000   28.9110   20.5570 C.ar  173  PHE173     -0.0003
    190  CE2       59.7980   27.7530   20.3820 C.ar  173  PHE173     -0.0003
    191  CZ        60.5080   28.9420   20.4500 C.ar  173  PHE173     -0.0000
    192  N         58.5220   24.6480   24.0760 N.3   179  LEU179     -0.1245
    193  CA        59.3590   25.7530   24.5280 C.3   179  LEU179      0.1561
    194  C         59.6270   25.5880   26.0230 C.2   179  LEU179      0.2260
    195  O         58.7330   25.7680   26.8510 O.2   179  LEU179     -0.2867
    196  CB        58.6830   27.0980   24.2630 C.3   179  LEU179      0.0270
    197  CG        59.4620   28.3090   24.8000 C.3   179  LEU179      0.0019
    198  CD1       60.8090   28.4240   24.1060 C.3   179  LEU179      0.0001
    199  CD2       58.6480   29.5730   24.5690 C.3   179  LEU179      0.0001
    200  N         61.1800   26.6800   29.4970 N.3   181  VAL181     -0.1245
    201  CA        61.5010   27.9380   30.1430 C.3   181  VAL181      0.1561
    202  C         62.0060   27.7310   31.5640 C.2   181  VAL181      0.2260
    203  O         61.3630   27.0690   32.3690 O.2   181  VAL181     -0.2867
    204  CB        60.2730   28.8740   30.2000 C.3   181  VAL181      0.0252
    205  CG1       60.6480   30.1980   30.8660 C.3   181  VAL181      0.0019
    206  CG2       59.7420   29.1240   28.7930 C.3   181  VAL181      0.0019
    207  N         63.0080   29.7830   34.8990 N.3   183  GLN183     -0.1245
    208  CA        62.9190   31.0930   35.5090 C.3   183  GLN183      0.1566
    209  C         64.1140   31.2830   36.4400 C.2   183  GLN183      0.2260
    210  O         64.6300   30.3100   37.0010 O.2   183  GLN183     -0.2867
    211  CB        61.6150   31.2270   36.3050 C.3   183  GLN183      0.0367
    212  CG        60.3600   31.0700   35.4670 C.3   183  GLN183      0.0905
    213  CD        59.1380   31.6220   36.1550 C.2   183  GLN183      0.2608
    214  OE1       59.0820   32.8230   36.4640 O.2   183  GLN183     -0.2717
    215  NE2       58.1490   30.7610   36.4010 N.am  183  GLN183     -0.0878
    216  N         58.9260   26.0930   33.5630 N.3   203  LEU203     -0.1245
    217  CA        57.6960   25.8220   32.8360 C.3   203  LEU203      0.1561
    218  C         57.9660   25.5730   31.3600 C.2   203  LEU203      0.2260
    219  O         59.0640   25.8090   30.8620 O.2   203  LEU203     -0.2867
    220  CB        56.7350   27.0040   32.9850 C.3   203  LEU203      0.0270
    221  CG        57.1910   28.3340   32.3620 C.3   203  LEU203      0.0019
    222  CD1       56.8370   28.3650   30.8640 C.3   203  LEU203      0.0001
    223  CD2       56.4830   29.4920   33.0650 C.3   203  LEU203      0.0001
    224  N         55.9810   25.7490   27.3010 N.3   205  ILE205     -0.1245
    225  CA        54.8610   26.2410   26.5150 C.3   205  ILE205      0.1561
    226  C         54.4700   25.1530   25.5290 C.2   205  ILE205      0.2260
    227  O         55.2480   24.7960   24.6390 O.2   205  ILE205     -0.2867
    228  CB        55.2460   27.5030   25.7150 C.3   205  ILE205      0.0252
    229  CG1       55.9300   28.5260   26.6260 C.3   205  ILE205      0.0019
    230  CG2       54.0040   28.1150   25.0840 C.3   205  ILE205      0.0019
    231  CD1       55.0910   28.9550   27.8120 C.3   205  ILE205      0.0001
    232  N         52.5360   24.7390   20.4210 N.3   208  ILE208     -0.1245
    233  CA        53.1180   25.6250   19.4210 C.3   208  ILE208      0.1561
    234  C         52.8630   25.1420   17.9980 C.2   208  ILE208      0.2260
    235  O         52.6750   25.9550   17.0960 O.2   208  ILE208     -0.2867
    236  CB        54.6410   25.8150   19.6600 C.3   208  ILE208      0.0252
    237  CG1       54.8470   26.6930   20.9010 C.3   208  ILE208      0.0019
    238  CG2       55.2980   26.4690   18.4360 C.3   208  ILE208      0.0019
    239  CD1       56.2700   27.1210   21.1420 C.3   208  ILE208      0.0001
    240  N         49.2460   28.1670   21.8660 N.3   213  PRO213     -0.2116
    241  CA        50.1960   28.1080   22.9780 C.3   213  PRO213      0.1372
    242  C         49.5390   28.2240   24.3430 C.2   213  PRO213      0.2244
    243  O         48.5690   28.9620   24.5240 O.2   213  PRO213     -0.2868
    244  CB        51.1240   29.2990   22.7080 C.3   213  PRO213      0.0268
    245  CG        50.9410   29.6010   21.2610 C.3   213  PRO213      0.0207
    246  CD        49.4730   29.3890   21.0730 C.3   213  PRO213      0.0892
    247  N         50.5680   27.6250   28.8360 N.3   215  VAL215     -0.1245
    248  CA        51.5520   27.3180   29.8600 C.3   215  VAL215      0.1561
    249  C         51.2240   26.1350   30.7590 C.2   215  VAL215      0.2260
    250  O         50.0840   25.9570   31.1750 O.2   215  VAL215     -0.2867
    251  CB        51.7800   28.5390   30.7890 C.3   215  VAL215      0.0252
    252  CG1       52.7070   28.1640   31.9230 C.3   215  VAL215      0.0019
    253  CG2       52.3420   29.7040   29.9990 C.3   215  VAL215      0.0019
@<TRIPOS>BOND
     1     1     2    1
     2     3     2    1
     3     3     4    2
     4    15    16    1
     5     2     5    1
     6     5     6    1
     7    16    17    1
     8    16    19    1
     9    17    18    2
    10    19    20    1
    11     6     7   ar
    12     6     8   ar
    13     7     9   ar
    14     8    11   ar
    15     8    10   ar
    16    20    21   ar
    17    20    22   ar
    18    45    44    2
    19    11    13   ar
    20    44    43    1
    21     9    10   ar
    22    42    43    1
    23    21    23   ar
    24    10    12   ar
    25    22    24   ar
    26    43    46    1
    27    36    37    2
    28    36    35    1
    29    13    14   ar
    30    35    34    1
    31    35    38    1
    32    23    25   ar
    33    12    14   ar
    34    24    25   ar
    35    47    48    1
    36   235   234    2
    37    41    39    1
    38    38    39    1
    39    53    51    1
    40    51    48    1
    41    51    52    1
    42   234   233    1
    43    39    40    1
    44    48    49    1
    45   238   236    1
    46   146   145    1
    47    52    54    1
    48    49    50    2
    49   233   236    1
    50   233   232    1
    51   236   237    1
    52   137   136    1
    53    29    28    2
    54   144   145    1
    55   144   143    1
    56   190   188   ar
    57   190   191   ar
    58   188   186   ar
    59   191   189   ar
    60   186   185    1
    61   186   187   ar
    62   189   187   ar
    63   185   182    1
    64   136   135    1
    65   237   239    1
    66    28    27    1
    67   246   245    1
    68   246   240    1
    69   245   244    1
    70   142   143    1
    71   142   139    1
    72   135   134    1
    73   184   183    2
    74    27    26    1
    75    27    30    1
    76   240   241    1
    77   183   182    1
    78   182   181    1
    79   134   133    1
    80   138   139    1
    81   138   131   am
    82   139   140    1
    83   141   140    2
    84   133   130    1
    85   244   241    1
    86   241   242    1
    87    30    31    1
    88   123   122    2
    89   130   131    1
    90   130   129    1
    91   140   147   am
    92    33    31    1
    93   131   132    2
    94   150   149    2
    95    31    32    1
    96   192   193    1
    97   198   197    1
    98   122   129   am
    99   122   121    1
   100   196   193    1
   101   196   197    1
   102   242   243    2
   103   147   148    1
   104   147   153    1
   105   193   194    1
   106   199   197    1
   107   149   148    1
   108   227   226    2
   109   120   121    1
   110   230   228    1
   111   148   151    1
   112   153   152    1
   113   121   124    1
   114   226   225    1
   115   228   225    1
   116   228   229    1
   117   194   195    2
   118   124   125    1
   119   152   151    1
   120   225   224    1
   121   229   231    1
   122   125   126    1
   123   112   111    2
   124   128   126   ar
   125   111   110    1
   126   113   114    1
   127   113   110    1
   128   126   127   ar
   129   114   115    1
   130   110   109    1
   131    61    60    1
   132   206   204    1
   133   247   248    1
   134   180   178    1
   135    60    62    1
   136    60    59    1
   137    55    56    1
   138   115   116    1
   139   200   201    1
   140   116   117    2
   141   248   249    1
   142   248   251    1
   143   253   251    1
   144   178   177    1
   145   201   204    1
   146   201   202    1
   147   204   205    1
   148    59    56    1
   149    73    71   ar
   150    73    72   ar
   151   176   175    2
   152    56    57    1
   153    71    69   ar
   154   249   250    2
   155   251   252    1
   156   219   218    2
   157   222   221    1
   158   175   174    1
   159   117   119    1
   160   117   118    1
   161    72    70   ar
   162   177   174    1
   163   177   179    1
   164   218   217    1
   165   202   203    2
   166    57    58    2
   167   100    99    2
   168    69    68   ar
   169   174   173    1
   170   221   220    1
   171   221   223    1
   172    70    68   ar
   173    68    67    1
   174   217   220    1
   175   217   216    1
   176    99    98    1
   177    98   101    1
   178    98    97    1
   179    91    90    2
   180   101   102    1
   181    67    64    1
   182    63    64    1
   183   104   102   ar
   184   104   106   ar
   185    64    65    1
   186   207   208    1
   187   171   170    2
   188    97    90   am
   189    90    89    1
   190   102   103   ar
   191   106   107   ar
   192   168   167    2
   193   212   213    1
   194   212   211    1
   195   208   211    1
   196   208   209    1
   197   167   166    1
   198   170   172   am
   199   170   169    1
   200   213   215   am
   201   213   214    2
   202    89    88    1
   203    89    92    1
   204   103   105   ar
   205    65    66    2
   206   209   210    2
   207   107   105   ar
   208   107   108    1
   209   169   166    1
   210    92    93    1
   211    96    94   am
   212   166   165    1
   213    94    93    1
   214    94    95    2
   215   160   162   ar
   216   160   159   ar
   217   162   164   ar
   218   158   159    1
   219   158   155    1
   220    82    80   ar
   221    82    83   ar
   222   154   155    1
   223   159   161   ar
   224    74    75    1
   225    80    79   ar
   226   155   156    1
   227   164   163   ar
   228    83    85   ar
   229    83    81   ar
   230    85    87   ar
   231   161   163   ar
   232    79    81   ar
   233    79    78    1
   234    75    78    1
   235    75    76    1
   236    81    84   ar
   237   156   157    2
   238    87    86   ar
   239    76    77    2
   240    84    86   ar
