@<TRIPOS>MOLECULE
tmp/1zi4A00.pdb
 124 119 0 0 0
SMALL
GASTEIGER

@<TRIPOS>ATOM
      1  N         20.6740   63.1360   36.8340 N.3   152  HIS152     -0.1227
      2  CA        19.8860   63.5710   37.9830 C.3   152  HIS152      0.1737
      3  C         19.4780   65.0310   37.7830 C.2   152  HIS152      0.2438
      4  O         20.3230   65.8940   37.5450 O.2   152  HIS152     -0.2733
      5  CB        20.7140   63.4180   39.2600 C.3   152  HIS152      0.0758
      6  CG        19.9250   63.5880   40.5200 C.ar  152  HIS152      0.0818
      7  ND1       19.2600   64.7540   40.8330 N.ar  152  HIS152     -0.2268
      8  CD2       19.7060   62.7410   41.5540 C.ar  152  HIS152      0.1154
      9  CE1       18.6670   64.6190   42.0060 C.ar  152  HIS152      0.1986
     10  NE2       18.9210   63.4070   42.4640 N.ar  152  HIS152     -0.2212
     11  N         18.1720   65.3240   37.8910 N.am  153  PRO153     -0.2718
     12  CA        17.6280   66.6730   37.7150 C.3   153  PRO153      0.1535
     13  C         18.1810   67.7750   38.6100 C.2   153  PRO153      0.2599
     14  O         18.1190   68.9510   38.2530 O.2   153  PRO153     -0.2715
     15  CB        16.1280   66.4640   37.9120 C.3   153  PRO153      0.0310
     16  CG        16.0770   65.3460   38.8920 C.3   153  PRO153      0.0237
     17  CD        17.1190   64.4000   38.3480 C.3   153  PRO153      0.0939
     18  N         18.7250   67.4100   39.7640 N.am  154  GLY154     -0.1941
     19  CA        19.2530   68.4300   40.6530 C.3   154  GLY154      0.2014
     20  C         20.7600   68.5950   40.6210 C.2   154  GLY154      0.2638
     21  O         21.3130   69.3520   41.4190 O.2   154  GLY154     -0.2714
     22  N         21.4300   67.9100   39.6980 N.am  155  PHE155     -0.1973
     23  CA        22.8890   67.9810   39.6230 C.3   155  PHE155      0.1639
     24  C         23.4780   68.1170   38.2260 C.2   155  PHE155      0.2290
     25  O         24.6960   68.1920   38.0800 O.2   155  PHE155     -0.2864
     26  CB        23.4940   66.7340   40.2680 C.3   155  PHE155      0.0560
     27  CG        23.3120   66.6710   41.7500 C.ar  155  PHE155     -0.0200
     28  CD1       24.1470   67.3950   42.5920 C.ar  155  PHE155     -0.0042
     29  CD2       22.2950   65.9040   42.3070 C.ar  155  PHE155     -0.0042
     30  CE1       23.9770   67.3580   43.9690 C.ar  155  PHE155     -0.0003
     31  CE2       22.1140   65.8600   43.6850 C.ar  155  PHE155     -0.0003
     32  CZ        22.9600   66.5910   44.5170 C.ar  155  PHE155     -0.0000
     33  N         30.7470   68.7140   43.7400 N.3   162  ALA162     -0.1245
     34  CA        29.4770   68.8320   44.4480 C.3   162  ALA162      0.1562
     35  C         28.5820   67.5950   44.3710 C.2   162  ALA162      0.2260
     36  O         27.6140   67.4830   45.1240 O.2   162  ALA162     -0.2867
     37  CB        28.7170   70.0560   43.9360 C.3   162  ALA162      0.0290
     38  N         26.9040   64.2060   45.0390 N.3   164  THR164     -0.1218
     39  CA        26.8000   63.4720   46.2950 C.3   164  THR164      0.1862
     40  C         27.1790   61.9970   46.1730 C.2   164  THR164      0.2287
     41  O         26.4260   61.1170   46.5960 O.2   164  THR164     -0.2866
     42  CB        25.3790   63.5760   46.8990 C.3   164  THR164      0.1770
     43  OG1       24.4130   63.1090   45.9510 O.3   164  THR164     -0.2211
     44  CG2       25.0650   65.0180   47.2700 C.3   164  THR164      0.0375
     45  N         26.2450   62.7650   37.4640 N.3   183  TYR183     -0.1241
     46  CA        25.6060   62.1620   38.6150 C.3   183  TYR183      0.1605
     47  C         24.3190   61.5680   38.0670 C.2   183  TYR183      0.2264
     48  O         23.3960   62.2910   37.6890 O.2   183  TYR183     -0.2867
     49  CB        25.3030   63.1840   39.7100 C.3   183  TYR183      0.0534
     50  CG        24.8550   62.5110   40.9860 C.ar  183  TYR183     -0.0201
     51  CD1       23.5030   62.4020   41.3060 C.ar  183  TYR183     -0.0009
     52  CD2       25.7840   61.9060   41.8350 C.ar  183  TYR183     -0.0009
     53  CE1       23.0830   61.7000   42.4420 C.ar  183  TYR183      0.0417
     54  CE2       25.3780   61.1990   42.9680 C.ar  183  TYR183      0.0417
     55  CZ        24.0260   61.1000   43.2650 C.ar  183  TYR183      0.1957
     56  OH        23.6200   60.3900   44.3750 O.3   183  TYR183     -0.2866
     57  N         20.8220   59.1820   38.1280 N.3   185  LEU185     -0.1245
     58  CA        19.6870   58.8910   38.9940 C.3   185  LEU185      0.1561
     59  C         19.5420   57.3960   39.2120 C.2   185  LEU185      0.2260
     60  O         19.7040   56.6150   38.2810 O.2   185  LEU185     -0.2867
     61  CB        18.4010   59.3880   38.3440 C.3   185  LEU185      0.0270
     62  CG        17.9340   60.8130   38.5770 C.3   185  LEU185      0.0019
     63  CD1       16.9450   61.1870   37.4930 C.3   185  LEU185      0.0001
     64  CD2       17.3110   60.9230   39.9610 C.3   185  LEU185      0.0001
     65  N         23.9970   57.2270   49.4890 N.3   219  TRP219     -0.1241
     66  CA        22.7430   57.1920   48.7540 C.3   219  TRP219      0.1605
     67  C         22.3970   55.7970   48.2550 C.2   219  TRP219      0.2264
     68  O         21.7890   55.6200   47.1960 O.2   219  TRP219     -0.2867
     69  CB        22.7610   58.2120   47.6140 C.3   219  TRP219      0.0550
     70  CG        22.5190   59.5940   48.1330 C.ar  219  TRP219      0.0003
     71  CD1       23.4220   60.6160   48.2100 C.ar  219  TRP219      0.0946
     72  CD2       21.3050   60.0840   48.7150 C.ar  219  TRP219      0.0152
     73  NE1       22.8450   61.7130   48.8070 N.ar  219  TRP219     -0.2442
     74  CE2       21.5460   61.4130   49.1260 C.ar  219  TRP219      0.0810
     75  CE3       20.0360   59.5280   48.9300 C.ar  219  TRP219      0.0012
     76  CZ2       20.5610   62.1990   49.7410 C.ar  219  TRP219      0.0191
     77  CZ3       19.0560   60.3090   49.5430 C.ar  219  TRP219      0.0001
     78  CH2       19.3280   61.6310   49.9400 C.ar  219  TRP219      0.0015
     79  N         21.7470   54.1410   44.5110 N.3   222  GLU222     -0.1245
     80  CA        22.1800   55.2060   43.6210 C.3   222  GLU222      0.1567
     81  C         23.6860   55.4490   43.6710 C.2   222  GLU222      0.2260
     82  O         24.2950   55.7930   42.6590 O.2   222  GLU222     -0.2867
     83  CB        21.4190   56.4910   43.9550 C.3   222  GLU222      0.0388
     84  CG        21.7670   57.6900   43.0900 C.3   222  GLU222      0.1160
     85  CD        20.8060   58.8500   43.3070 C.2   222  GLU222      0.3649
     86  OE1       19.7150   58.8460   42.6950 O.co2 222  GLU222     -0.2457
     87  OE2       21.1380   59.7560   44.1050 O.co2 222  GLU222     -0.2457
     88  N         13.4880   62.4900   33.8410 N.3   243  LEU243     -0.1245
     89  CA        13.1480   62.3310   35.2520 C.3   243  LEU243      0.1561
     90  C         13.2950   63.6990   35.8940 C.2   243  LEU243      0.2260
     91  O         14.3880   64.1130   36.2930 O.2   243  LEU243     -0.2867
     92  CB        14.0230   61.2860   35.9580 C.3   243  LEU243      0.0270
     93  CG        13.2710   60.6750   37.1600 C.3   243  LEU243      0.0019
     94  CD1       13.9590   59.4140   37.6580 C.3   243  LEU243      0.0001
     95  CD2       13.1640   61.7070   38.2780 C.3   243  LEU243      0.0001
     96  N         11.3130   66.9680   38.4380 N.3   245  ASP245     -0.1239
     97  CA        10.4340   67.2720   39.5630 C.3   245  ASP245      0.1674
     98  C         10.1260   68.7530   39.3920 C.2   245  ASP245      0.2266
     99  O         10.8920   69.6150   39.8300 O.2   245  ASP245     -0.2867
    100  CB        11.1360   67.0330   40.9040 C.3   245  ASP245      0.1410
    101  CG        10.2030   67.2360   42.0900 C.2   245  ASP245      0.3668
    102  OD1        9.2790   68.0690   41.9820 O.co2 245  ASP245     -0.2456
    103  OD2       10.3960   66.5760   43.1290 O.co2 245  ASP245     -0.2456
    104  N          9.6750   71.0840   42.5750 N.3   248  LEU248     -0.1231
    105  CA        10.9400   71.4270   43.2010 C.3   248  LEU248      0.1693
    106  C         11.9530   72.1560   42.3140 C.2   248  LEU248      0.2591
    107  O         12.7260   72.9880   42.8020 O.2   248  LEU248     -0.2718
    108  CB        11.5610   70.1440   43.7410 C.3   248  LEU248      0.0284
    109  CG        12.8050   70.1780   44.6170 C.3   248  LEU248      0.0019
    110  CD1       12.6160   71.0610   45.8470 C.3   248  LEU248      0.0001
    111  CD2       13.0520   68.7590   45.0400 C.3   248  LEU248      0.0001
    112  N         11.9420   71.8660   41.0150 N.am  249  LEU249     -0.1980
    113  CA        12.9110   72.4700   40.1040 C.3   249  LEU249      0.1596
    114  C         12.3230   73.3620   39.0140 C.2   249  LEU249      0.2287
    115  O         13.0580   73.9480   38.2190 O.2   249  LEU249     -0.2864
    116  CB        13.7590   71.3590   39.4660 C.3   249  LEU249      0.0297
    117  CG        14.4600   70.3870   40.4220 C.3   249  LEU249      0.0022
    118  CD1       15.0640   69.2280   39.6340 C.3   249  LEU249      0.0001
    119  CD2       15.5420   71.1200   41.2050 C.3   249  LEU249      0.0001
    120  N          8.0750   63.2330   39.1010 N.3   262  ALA262     -0.1245
    121  CA         7.7530   62.7860   40.4450 C.3   262  ALA262      0.1562
    122  C          6.3150   63.1770   40.7480 C.2   262  ALA262      0.2260
    123  O          5.8170   64.1760   40.2340 O.2   262  ALA262     -0.2867
    124  CB         8.6980   63.4390   41.4520 C.3   262  ALA262      0.0290
@<TRIPOS>BOND
     1    88    89    1
     2    89    90    1
     3    89    92    1
     4    90    91    2
     5    92    93    1
     6     1     2    1
     7    93    94    1
     8    93    95    1
     9    45    46    1
    10    63    62    1
    11     4     3    2
    12    48    47    2
    13    12    11    1
    14    12    15    1
    15    12    13    1
    16     3    11   am
    17     3     2    1
    18    11    17    1
    19    15    16    1
    20     2     5    1
    21    47    46    1
    22    25    24    2
    23    57    58    1
    24   115   114    2
    25    24    23    1
    26    14    13    2
    27    60    59    2
    28    61    62    1
    29    61    58    1
    30    17    16    1
    31    96    97    1
    32    62    64    1
    33    13    18   am
    34    46    49    1
    35    58    59    1
    36   114   113    1
    37   120   121    1
    38     5     6    1
    39    98    97    1
    40    98    99    2
    41   116   113    1
    42   116   117    1
    43    97   100    1
    44    23    22    1
    45    23    26    1
    46   118   117    1
    47    22    20   am
    48    49    50    1
    49    18    19    1
    50   113   112    1
    51   123   122    2
    52    26    27    1
    53   117   119    1
    54   121   122    1
    55   121   124    1
    56     6     7   ar
    57     6     8   ar
    58    20    19    1
    59    20    21    2
    60     7     9   ar
    61   100   101    1
    62    50    51   ar
    63    50    52   ar
    64   112   106   am
    65    51    53   ar
    66     8    10   ar
    67    27    29   ar
    68    27    28   ar
    69    52    54   ar
    70   102   101   ar
    71     9    10   ar
    72   101   103   ar
    73    29    31   ar
    74   106   107    2
    75   106   105    1
    76    53    55   ar
    77   104   105    1
    78    28    30   ar
    79    82    81    2
    80    86    85   ar
    81    54    55   ar
    82    84    85    1
    83    84    83    1
    84   105   108    1
    85    55    56    1
    86    85    87   ar
    87    80    81    1
    88    80    83    1
    89    80    79    1
    90    31    32   ar
    91    33    34    1
    92   108   109    1
    93    37    34    1
    94    30    32   ar
    95    35    34    1
    96    35    36    2
    97   109   111    1
    98   109   110    1
    99    38    39    1
   100    43    42    1
   101    40    39    1
   102    40    41    2
   103    39    42    1
   104    42    44    1
   105    68    67    2
   106    69    70    1
   107    69    66    1
   108    70    71   ar
   109    70    72   ar
   110    71    73   ar
   111    67    66    1
   112    72    75   ar
   113    72    74   ar
   114    66    65    1
   115    73    74   ar
   116    75    77   ar
   117    74    76   ar
   118    77    78   ar
   119    76    78   ar
