@<TRIPOS>MOLECULE
tmp/1zi5A00.pdb
 119 115 0 0 0
SMALL
GASTEIGER

@<TRIPOS>ATOM
      1  N         20.7370   63.0550   37.1750 N.3   152  HIS152     -0.1227
      2  CA        19.9670   63.4600   38.3480 C.3   152  HIS152      0.1737
      3  C         19.5970   64.9290   38.1500 C.2   152  HIS152      0.2438
      4  O         20.4650   65.7650   37.8940 O.2   152  HIS152     -0.2733
      5  CB        20.8290   63.2770   39.6000 C.3   152  HIS152      0.0758
      6  CG        20.0840   63.4410   40.8880 C.ar  152  HIS152      0.0818
      7  ND1       19.4720   64.6220   41.2510 N.ar  152  HIS152     -0.2268
      8  CD2       19.8830   62.5810   41.9150 C.ar  152  HIS152      0.1154
      9  CE1       18.9310   64.4840   42.4490 C.ar  152  HIS152      0.1986
     10  NE2       19.1660   63.2560   42.8740 N.ar  152  HIS152     -0.2212
     11  N         18.3000   65.2620   38.2620 N.am  153  PRO153     -0.2718
     12  CA        17.8430   66.6410   38.0780 C.3   153  PRO153      0.1535
     13  C         18.4450   67.6600   39.0330 C.2   153  PRO153      0.2599
     14  O         18.4140   68.8570   38.7610 O.2   153  PRO153     -0.2715
     15  CB        16.3260   66.5210   38.2260 C.3   153  PRO153      0.0310
     16  CG        16.1780   65.4060   39.2090 C.3   153  PRO153      0.0237
     17  CD        17.1890   64.3980   38.6980 C.3   153  PRO153      0.0939
     18  N         19.0010   67.1860   40.1420 N.am  154  GLY154     -0.1941
     19  CA        19.5880   68.0960   41.1050 C.3   154  GLY154      0.2014
     20  C         21.0800   68.3370   40.9570 C.2   154  GLY154      0.2638
     21  O         21.6440   69.1530   41.6850 O.2   154  GLY154     -0.2714
     22  N         21.7290   67.6490   40.0210 N.am  155  PHE155     -0.1973
     23  CA        23.1700   67.8240   39.8520 C.3   155  PHE155      0.1639
     24  C         23.6610   67.9490   38.4140 C.2   155  PHE155      0.2290
     25  O         24.8690   68.0070   38.1840 O.2   155  PHE155     -0.2864
     26  CB        23.9300   66.6590   40.5000 C.3   155  PHE155      0.0560
     27  CG        23.6420   66.4710   41.9630 C.ar  155  PHE155     -0.0200
     28  CD1       22.5270   65.7510   42.3810 C.ar  155  PHE155     -0.0042
     29  CD2       24.4950   67.0030   42.9240 C.ar  155  PHE155     -0.0042
     30  CE1       22.2670   65.5610   43.7380 C.ar  155  PHE155     -0.0003
     31  CE2       24.2440   66.8200   44.2840 C.ar  155  PHE155     -0.0003
     32  CZ        23.1290   66.0980   44.6910 C.ar  155  PHE155     -0.0000
     33  N         26.9880   64.0720   45.2580 N.3   164  THR164     -0.1218
     34  CA        26.8580   63.3520   46.5150 C.3   164  THR164      0.1862
     35  C         27.2440   61.8750   46.4080 C.2   164  THR164      0.2287
     36  O         26.5190   60.9960   46.8740 O.2   164  THR164     -0.2866
     37  CB        25.4300   63.4690   47.0930 C.3   164  THR164      0.1770
     38  OG1       24.4720   63.0470   46.1190 O.3   164  THR164     -0.2211
     39  CG2       25.1410   64.9070   47.4930 C.3   164  THR164      0.0375
     40  N         26.2700   62.6750   37.7630 N.3   183  TYR183     -0.1241
     41  CA        25.6390   62.0550   38.9120 C.3   183  TYR183      0.1605
     42  C         24.3470   61.4510   38.3690 C.2   183  TYR183      0.2264
     43  O         23.4150   62.1700   37.9920 O.2   183  TYR183     -0.2867
     44  CB        25.3320   63.0650   40.0180 C.3   183  TYR183      0.0534
     45  CG        24.8840   62.3710   41.2850 C.ar  183  TYR183     -0.0201
     46  CD1       23.5290   62.2220   41.5840 C.ar  183  TYR183     -0.0009
     47  CD2       25.8170   61.7920   42.1460 C.ar  183  TYR183     -0.0009
     48  CE1       23.1150   61.5060   42.7130 C.ar  183  TYR183      0.0417
     49  CE2       25.4170   61.0740   43.2700 C.ar  183  TYR183      0.0417
     50  CZ        24.0680   60.9330   43.5460 C.ar  183  TYR183      0.1957
     51  OH        23.6790   60.2010   44.6470 O.3   183  TYR183     -0.2866
     52  N         20.8650   59.0520   38.4470 N.3   185  LEU185     -0.1245
     53  CA        19.7370   58.7660   39.3320 C.3   185  LEU185      0.1561
     54  C         19.5440   57.2720   39.5250 C.2   185  LEU185      0.2260
     55  O         19.6630   56.5010   38.5830 O.2   185  LEU185     -0.2867
     56  CB        18.4490   59.3260   38.7290 C.3   185  LEU185      0.0270
     57  CG        18.0420   60.7740   38.9580 C.3   185  LEU185      0.0019
     58  CD1       17.0550   61.1860   37.8770 C.3   185  LEU185      0.0001
     59  CD2       17.4310   60.9230   40.3430 C.3   185  LEU185      0.0001
     60  N         23.9930   57.1360   49.7330 N.3   219  TRP219     -0.1241
     61  CA        22.7320   57.1040   49.0090 C.3   219  TRP219      0.1605
     62  C         22.3660   55.7140   48.5060 C.2   219  TRP219      0.2264
     63  O         21.7330   55.5460   47.4590 O.2   219  TRP219     -0.2867
     64  CB        22.7310   58.1440   47.8840 C.3   219  TRP219      0.0550
     65  CG        22.5510   59.5290   48.4380 C.ar  219  TRP219      0.0003
     66  CD1       23.4930   60.5140   48.5180 C.ar  219  TRP219      0.0946
     67  CD2       21.3750   60.0470   49.0770 C.ar  219  TRP219      0.0152
     68  NE1       22.9800   61.6110   49.1710 N.ar  219  TRP219     -0.2442
     69  CE2       21.6820   61.3520   49.5250 C.ar  219  TRP219      0.0810
     70  CE3       20.0930   59.5330   49.3170 C.ar  219  TRP219      0.0012
     71  CZ2       20.7530   62.1520   50.2010 C.ar  219  TRP219      0.0191
     72  CZ3       19.1670   60.3300   49.9900 C.ar  219  TRP219      0.0001
     73  CH2       19.5050   61.6250   50.4230 C.ar  219  TRP219      0.0015
     74  N         21.7860   53.9550   44.7930 N.3   222  GLU222     -0.1245
     75  CA        22.1900   55.0170   43.8820 C.3   222  GLU222      0.1567
     76  C         23.6930   55.2750   43.9360 C.2   222  GLU222      0.2260
     77  O         24.3130   55.5950   42.9130 O.2   222  GLU222     -0.2867
     78  CB        21.4140   56.2940   44.2120 C.3   222  GLU222      0.0388
     79  CG        21.7790   57.4980   43.3690 C.3   222  GLU222      0.1160
     80  CD        20.7940   58.6380   43.5570 C.2   222  GLU222      0.3649
     81  OE1       19.7110   58.6020   42.9360 O.co2 222  GLU222     -0.2457
     82  OE2       21.0930   59.5610   44.3420 O.co2 222  GLU222     -0.2457
     83  N         13.5400   62.4490   34.1010 N.3   243  LEU243     -0.1245
     84  CA        13.2020   62.2730   35.5150 C.3   243  LEU243      0.1561
     85  C         13.3460   63.6370   36.1540 C.2   243  LEU243      0.2260
     86  O         14.4490   64.0890   36.4710 O.2   243  LEU243     -0.2867
     87  CB        14.0900   61.2370   36.2170 C.3   243  LEU243      0.0270
     88  CG        13.3610   60.6220   37.4280 C.3   243  LEU243      0.0019
     89  CD1       14.0840   59.3750   37.9040 C.3   243  LEU243      0.0001
     90  CD2       13.2540   61.6450   38.5520 C.3   243  LEU243      0.0001
     91  N         11.3220   66.8230   38.7980 N.3   245  ASP245     -0.1239
     92  CA        10.4240   67.1130   39.9110 C.3   245  ASP245      0.1674
     93  C         10.0820   68.5850   39.7180 C.2   245  ASP245      0.2266
     94  O         10.8430   69.4690   40.1240 O.2   245  ASP245     -0.2867
     95  CB        11.1340   66.9110   41.2530 C.3   245  ASP245      0.1410
     96  CG        10.1960   67.0650   42.4440 C.2   245  ASP245      0.3668
     97  OD1        9.2700   67.8960   42.3710 O.co2 245  ASP245     -0.2456
     98  OD2       10.3960   66.3650   43.4610 O.co2 245  ASP245     -0.2456
     99  N          9.6710   70.7940   43.0100 N.3   248  LEU248     -0.1231
    100  CA        10.9260   71.1950   43.6280 C.3   248  LEU248      0.1693
    101  C         11.8710   71.9860   42.7200 C.2   248  LEU248      0.2591
    102  O         12.6170   72.8480   43.1920 O.2   248  LEU248     -0.2718
    103  CB        11.6430   69.9390   44.1450 C.3   248  LEU248      0.0284
    104  CG        12.8310   70.0380   45.1090 C.3   248  LEU248      0.0019
    105  CD1       14.0380   70.6580   44.4230 C.3   248  LEU248      0.0001
    106  CD2       12.4160   70.8430   46.3260 C.3   248  LEU248      0.0001
    107  N         11.8270   71.7110   41.4190 N.am  249  LEU249     -0.1980
    108  CA        12.7430   72.3580   40.4850 C.3   249  LEU249      0.1596
    109  C         12.1540   73.2410   39.3920 C.2   249  LEU249      0.2287
    110  O         12.9000   73.8080   38.5940 O.2   249  LEU249     -0.2864
    111  CB        13.6220   71.2880   39.8310 C.3   249  LEU249      0.0297
    112  CG        14.4320   70.4110   40.7890 C.3   249  LEU249      0.0022
    113  CD1       15.0630   69.2600   40.0200 C.3   249  LEU249      0.0001
    114  CD2       15.4990   71.2540   41.4760 C.3   249  LEU249      0.0001
    115  N          8.0930   63.2880   39.2460 N.3   262  ALA262     -0.1245
    116  CA         7.7230   62.8510   40.5860 C.3   262  ALA262      0.1562
    117  C          6.2850   63.2430   40.8910 C.2   262  ALA262      0.2260
    118  O          5.8010   64.2700   40.4260 O.2   262  ALA262     -0.2867
    119  CB         8.6590   63.4760   41.6210 C.3   262  ALA262      0.0290
@<TRIPOS>BOND
     1    83    84    1
     2    84    85    1
     3    84    87    1
     4    85    86    2
     5    87    88    1
     6     1     2    1
     7    88    89    1
     8    88    90    1
     9    40    41    1
    10    58    57    1
    11     4     3    2
    12    43    42    2
    13    12    15    1
    14    12    11    1
    15    12    13    1
    16     3    11   am
    17     3     2    1
    18    25    24    2
    19    15    16    1
    20    11    17    1
    21     2     5    1
    22    42    41    1
    23    24    23    1
    24    52    53    1
    25    55    54    2
    26   110   109    2
    27    17    16    1
    28    56    57    1
    29    56    53    1
    30    14    13    2
    31    91    92    1
    32    41    44    1
    33    57    59    1
    34    13    18   am
    35   115   116    1
    36    53    54    1
    37   109   108    1
    38     5     6    1
    39    93    92    1
    40    93    94    2
    41   111   108    1
    42   111   112    1
    43    23    22    1
    44    23    26    1
    45    92    95    1
    46    44    45    1
    47   113   112    1
    48    22    20   am
    49    18    19    1
    50   118   117    2
    51   108   107    1
    52    26    27    1
    53   116   117    1
    54   116   119    1
    55   112   114    1
    56     6     7   ar
    57     6     8   ar
    58    20    19    1
    59    20    21    2
    60     7     9   ar
    61    95    96    1
    62    45    46   ar
    63    45    47   ar
    64   107   101   am
    65    46    48   ar
    66     8    10   ar
    67    27    28   ar
    68    27    29   ar
    69    47    49   ar
    70    97    96   ar
    71    28    30   ar
    72    96    98   ar
    73     9    10   ar
    74    48    50   ar
    75   101   102    2
    76   101   100    1
    77    77    76    2
    78    29    31   ar
    79    81    80   ar
    80    99   100    1
    81    49    50   ar
    82    79    80    1
    83    79    78    1
    84    50    51    1
    85    80    82   ar
    86   100   103    1
    87    30    32   ar
    88    75    76    1
    89    75    78    1
    90    75    74    1
    91   103   104    1
    92    31    32   ar
    93   105   104    1
    94   104   106    1
    95    33    34    1
    96    38    37    1
    97    35    34    1
    98    35    36    2
    99    34    37    1
   100    37    39    1
   101    63    62    2
   102    64    65    1
   103    64    61    1
   104    65    66   ar
   105    65    67   ar
   106    62    61    1
   107    66    68   ar
   108    61    60    1
   109    67    70   ar
   110    67    69   ar
   111    68    69   ar
   112    70    72   ar
   113    69    71   ar
   114    72    73   ar
   115    71    73   ar
