@<TRIPOS>MOLECULE
tmp/1zinA00.pdb
 206 199 0 0 0
SMALL
GASTEIGER

@<TRIPOS>ATOM
      1  N         30.8990   11.0590    6.8440 N.3     9  PRO9       -0.2102
      2  CA        29.7910   10.9260    7.7960 C.3     9  PRO9        0.1504
      3  C         28.5510   11.6850    7.3150 C.2     9  PRO9        0.2576
      4  O         28.6460   12.8490    6.9400 O.2     9  PRO9       -0.2718
      5  CB        30.3620   11.5750    9.0510 C.3     9  PRO9        0.0282
      6  CG        31.7920   11.1510    9.0080 C.3     9  PRO9        0.0208
      7  CD        32.1640   11.3500    7.5470 C.3     9  PRO9        0.0893
      8  N         27.4080   11.0060    7.3010 N.am   10  GLY10      -0.1943
      9  CA        26.1610   11.6270    6.8730 C.3    10  GLY10       0.2014
     10  C         25.8300   11.4990    5.3930 C.2    10  GLY10       0.2639
     11  O         24.7630   11.9310    4.9620 O.2    10  GLY10      -0.2714
     12  N         26.7210   10.8840    4.6190 N.am   11  ALA11      -0.1963
     13  CA        26.5000   10.7360    3.1800 C.3    11  ALA11       0.1728
     14  C         25.3250    9.8150    2.8550 C.2    11  ALA11       0.2617
     15  O         24.7700    9.8760    1.7540 O.2    11  ALA11      -0.2715
     16  CB        27.7800   10.2420    2.4990 C.3    11  ALA11       0.0334
     17  N         24.9330    8.9780    3.8180 N.am   12  GLY12      -0.1940
     18  CA        23.8230    8.0610    3.6000 C.3    12  GLY12       0.2014
     19  C         24.2130    6.6040    3.3950 C.2    12  GLY12       0.2639
     20  O         23.4550    5.8250    2.8060 O.2    12  GLY12      -0.2714
     21  N         25.3860    6.2330    3.9060 N.am   13  LYS13      -0.1963
     22  CA        25.8990    4.8720    3.8140 C.3    13  LYS13       0.1728
     23  C         24.9790    3.8260    4.4420 C.2    13  LYS13       0.2617
     24  O         24.6270    2.8410    3.8050 O.2    13  LYS13      -0.2715
     25  CB        27.2850    4.8070    4.4770 C.3    13  LYS13       0.0311
     26  CG        28.3120    5.6880    3.8070 C.3    13  LYS13       0.0038
     27  CD        29.7040    5.5660    4.4350 C.3    13  LYS13       0.0206
     28  CE        29.7820    6.2540    5.7990 C.3    13  LYS13       0.1093
     29  NZ        29.3940    7.6770    5.7080 N.3    13  LYS13      -0.1314
     30  N         24.5910    4.0330    5.6960 N.am   14  GLY14      -0.1940
     31  CA        23.7340    3.0760    6.3700 C.3    14  GLY14       0.2014
     32  C         22.3810    2.9620    5.7020 C.2    14  GLY14       0.2640
     33  O         21.8580    1.8560    5.5440 O.2    14  GLY14      -0.2714
     34  N         21.8410    4.1030    5.2720 N.am   15  THR15      -0.1936
     35  CA        20.5410    4.1570    4.6130 C.3    15  THR15       0.2028
     36  C         20.5660    3.2780    3.3560 C.2    15  THR15       0.2642
     37  O         19.6950    2.4210    3.1650 O.2    15  THR15      -0.2714
     38  CB        20.1870    5.6290    4.2520 C.3    15  THR15       0.1808
     39  OG1       19.9910    6.3720    5.4620 O.3    15  THR15      -0.2208
     40  CG2       18.9210    5.7150    3.3970 C.3    15  THR15       0.0379
     41  N         21.5800    3.4700    2.5230 N.am   16  GLN16      -0.1976
     42  CA        21.7210    2.6920    1.2910 C.3    16  GLN16       0.1601
     43  C         22.0780    1.2280    1.5570 C.2    16  GLN16       0.2287
     44  O         21.5950    0.3330    0.8700 O.2    16  GLN16      -0.2864
     45  CB        22.7340    3.3470    0.3530 C.3    16  GLN16       0.0394
     46  CG        22.2670    4.7190   -0.1760 C.3    16  GLN16       0.0908
     47  CD        20.8910    4.6380   -0.8380 C.2    16  GLN16       0.2608
     48  OE1       20.5850    3.6610   -1.5250 O.2    16  GLN16      -0.2717
     49  NE2       20.0480    5.6410   -0.6040 N.am   16  GLN16      -0.0878
     50  N         29.6720    0.0620   18.3920 N.3    36  ARG36      -0.1245
     51  CA        28.5650    0.3890   19.2880 C.3    36  ARG36       0.1563
     52  C         28.0910   -0.8260   20.0580 C.2    36  ARG36       0.2260
     53  O         27.7490   -0.7330   21.2360 O.2    36  ARG36      -0.2867
     54  CB        27.4100    1.0560   18.5210 C.3    36  ARG36       0.0307
     55  CG        27.6590    2.5620   18.2700 C.3    36  ARG36       0.0489
     56  CD        26.4640    3.2830   17.6430 C.3    36  ARG36       0.2205
     57  NE        26.2760    2.8900   16.2500 N.pl3  36  ARG36      -0.0865
     58  CZ        26.8970    3.4640   15.2240 C.cat  36  ARG36       0.5346
     59  NH1       27.7480    4.4640   15.4200 N.pl3  36  ARG36       0.1354
     60  NH2       26.6790    3.0200   13.9900 N.pl3  36  ARG36       0.1354
     61  N         30.5400   -1.4930    5.2620 N.3    84  ASP84      -0.1239
     62  CA        29.9870   -0.1560    5.3900 C.3    84  ASP84       0.1674
     63  C         30.8250    0.6440    6.3850 C.2    84  ASP84       0.2266
     64  O         30.8090    0.3640    7.5910 O.2    84  ASP84      -0.2867
     65  CB        28.5200   -0.3090    5.8610 C.3    84  ASP84       0.1410
     66  CG        27.8520    1.0110    6.2390 C.2    84  ASP84       0.3668
     67  OD1       28.4280    2.0880    5.9900 O.co2  84  ASP84      -0.2456
     68  OD2       26.7230    0.9730    6.7860 O.co2  84  ASP84      -0.2456
     69  N         22.7460   16.8870    7.4000 N.3   123  ARG123     -0.1231
     70  CA        22.3650   15.4670    7.4310 C.3   123  ARG123      0.1694
     71  C         22.5100   14.8820    8.8480 C.2   123  ARG123      0.2591
     72  O         21.6010   14.2280    9.3680 O.2   123  ARG123     -0.2718
     73  CB        23.2660   14.6640    6.4790 C.3   123  ARG123      0.0321
     74  CG        23.0080   14.8970    4.9940 C.3   123  ARG123      0.0489
     75  CD        21.8180   14.0810    4.4980 C.3   123  ARG123      0.2205
     76  NE        21.6170   14.1800    3.0440 N.pl3 123  ARG123     -0.0865
     77  CZ        22.1580   13.3650    2.1300 C.cat 123  ARG123      0.5346
     78  NH1       22.9570   12.3740    2.4920 N.pl3 123  ARG123      0.1354
     79  NH2       21.8670   13.5330    0.8380 N.pl3 123  ARG123      0.1354
     80  N         23.6460   15.1680    9.4750 N.am  124  LEU124     -0.1980
     81  CA        23.9410   14.6490   10.7960 C.3   124  LEU124      0.1596
     82  C         23.2960   15.3680   11.9830 C.2   124  LEU124      0.2287
     83  O         22.7300   14.7150   12.8560 O.2   124  LEU124     -0.2864
     84  CB        25.4480   14.6040   10.9830 C.3   124  LEU124      0.0297
     85  CG        26.1770   13.6650   10.0270 C.3   124  LEU124      0.0022
     86  CD1       27.6890   13.8870   10.1390 C.3   124  LEU124      0.0001
     87  CD2       25.7670   12.2010   10.3240 C.3   124  LEU124      0.0001
     88  N         19.6070   14.4960   12.3940 N.3   127  ARG127     -0.1245
     89  CA        19.2400   13.0890   12.5020 C.3   127  ARG127      0.1563
     90  C         18.6830   12.7960   13.8880 C.2   127  ARG127      0.2260
     91  O         19.2190   13.3020   14.8710 O.2   127  ARG127     -0.2867
     92  CB        20.4680   12.1940   12.2700 C.3   127  ARG127      0.0307
     93  CG        20.2200   10.7440   12.6140 C.3   127  ARG127      0.0489
     94  CD        21.2330    9.8300   11.9700 C.3   127  ARG127      0.2205
     95  NE        22.5740   10.0330   12.4860 N.pl3 127  ARG127     -0.0865
     96  CZ        23.6440    9.3690   12.0610 C.cat 127  ARG127      0.5346
     97  NH1       23.5200    8.4470   11.1120 N.pl3 127  ARG127      0.1354
     98  NH2       24.8440    9.6530   12.5600 N.pl3 127  ARG127      0.1354
     99  N         15.3320    5.4650   12.0640 N.3   136  THR136     -0.1203
    100  CA        15.9980    6.7410   11.8310 C.3   136  THR136      0.1994
    101  C         15.1220    7.7500   11.0990 C.2   136  THR136      0.2618
    102  O         14.4300    7.4180   10.1410 O.2   136  THR136     -0.2717
    103  CB        17.3120    6.5140   11.0320 C.3   136  THR136      0.1784
    104  OG1       18.2040    5.7110   11.8180 O.3   136  THR136     -0.2211
    105  CG2       17.9870    7.8330   10.6590 C.3   136  THR136      0.0376
    106  N         15.1530    8.9830   11.5860 N.am  137  TYR137     -0.1961
    107  CA        14.3980   10.0750   10.9940 C.3   137  TYR137      0.1771
    108  C         15.3300   11.2550   10.8120 C.2   137  TYR137      0.2619
    109  O         16.5130   11.2290   11.1960 O.2   137  TYR137     -0.2715
    110  CB        13.2470   10.5020   11.9000 C.3   137  TYR137      0.0574
    111  CG        12.2630    9.4060   12.2010 C.ar  137  TYR137     -0.0198
    112  CD1       12.5160    8.4780   13.2190 C.ar  137  TYR137     -0.0009
    113  CD2       11.0780    9.2800   11.4690 C.ar  137  TYR137     -0.0009
    114  CE1       11.6190    7.4510   13.4990 C.ar  137  TYR137      0.0417
    115  CE2       10.1750    8.2570   11.7430 C.ar  137  TYR137      0.0417
    116  CZ        10.4540    7.3450   12.7580 C.ar  137  TYR137      0.1957
    117  OH         9.5810    6.3150   13.0310 O.3   137  TYR137     -0.2866
    118  N         14.7880   12.2980   10.2170 N.am  138  HIS138     -0.1973
    119  CA        15.5430   13.5100   10.0230 C.3   138  HIS138      0.1656
    120  C         14.5690   14.6720   10.1510 C.2   138  HIS138      0.2291
    121  O         13.5530   14.7260    9.4490 O.2   138  HIS138     -0.2864
    122  CB        16.2610   13.5340    8.6700 C.3   138  HIS138      0.0771
    123  CG        17.3040   14.5960    8.6010 C.ar  138  HIS138      0.0820
    124  ND1       16.9910   15.9370    8.6000 N.ar  138  HIS138     -0.2267
    125  CD2       18.6530   14.5230    8.6820 C.ar  138  HIS138      0.1154
    126  CE1       18.1010   16.6460    8.6910 C.ar  138  HIS138      0.1986
    127  NE2       19.1240   15.8100    8.7440 N.ar  138  HIS138     -0.2212
    128  N         14.7540   16.6400    6.5020 N.3   141  PHE141     -0.1227
    129  CA        14.4720   15.8070    5.3430 C.3   141  PHE141      0.1736
    130  C         13.3950   14.7350    5.3970 C.2   141  PHE141      0.2595
    131  O         12.8410   14.3830    4.3590 O.2   141  PHE141     -0.2718
    132  CB        15.7800   15.2480    4.8150 C.3   141  PHE141      0.0547
    133  CG        16.8550   16.2900    4.6710 C.ar  141  PHE141     -0.0202
    134  CD1       16.6580   17.4030    3.8600 C.ar  141  PHE141     -0.0042
    135  CD2       18.0670   16.1600    5.3440 C.ar  141  PHE141     -0.0042
    136  CE1       17.6580   18.3750    3.7210 C.ar  141  PHE141     -0.0003
    137  CE2       19.0730   17.1290    5.2100 C.ar  141  PHE141     -0.0003
    138  CZ        18.8640   18.2400    4.3940 C.ar  141  PHE141     -0.0000
    139  N         13.1470   14.1660    6.5740 N.am  142  HIS142     -0.1975
    140  CA        12.0920   13.1590    6.7410 C.3   142  HIS142      0.1656
    141  C         11.7110   13.0040    8.2100 C.2   142  HIS142      0.2291
    142  O         12.1050   12.0520    8.9010 O.2   142  HIS142     -0.2864
    143  CB        12.4310   11.8200    6.0770 C.3   142  HIS142      0.0771
    144  CG        13.7560   11.2700    6.4650 C.ar  142  HIS142      0.0820
    145  ND1       13.8970   10.2470    7.3770 N.ar  142  HIS142     -0.2267
    146  CD2       15.0030   11.5860    6.0510 C.ar  142  HIS142      0.1154
    147  CE1       15.1780    9.9560    7.5110 C.ar  142  HIS142      0.1986
    148  NE2       15.8690   10.7560    6.7180 N.ar  142  HIS142     -0.2212
    149  N         21.9680   11.1450   18.5140 N.3   160  ARG160     -0.1245
    150  CA        23.1840   10.3660   18.8080 C.3   160  ARG160      0.1563
    151  C         24.2300   11.2980   19.4710 C.2   160  ARG160      0.2260
    152  O         24.3140   12.4910   19.1450 O.2   160  ARG160     -0.2867
    153  CB        23.7430    9.7580   17.5200 C.3   160  ARG160      0.0307
    154  CG        24.2170    8.3370   17.6790 C.3   160  ARG160      0.0489
    155  CD        24.5110    7.6920   16.3290 C.3   160  ARG160      0.2205
    156  NE        25.8200    8.0410   15.7860 N.pl3 160  ARG160     -0.0865
    157  CZ        26.3090    7.5570   14.6400 C.cat 160  ARG160      0.5346
    158  NH1       25.5960    6.7050   13.9250 N.pl3 160  ARG160      0.1354
    159  NH2       27.4980    7.9670   14.1920 N.pl3 160  ARG160      0.1354
    160  N         34.4270   15.1870   13.1320 N.3   171  ARG171     -0.1245
    161  CA        34.2290   13.9620   12.3380 C.3   171  ARG171      0.1563
    162  C         34.4680   14.2060   10.8590 C.2   171  ARG171      0.2260
    163  O         35.1530   13.4270   10.1960 O.2   171  ARG171     -0.2867
    164  CB        32.8210   13.3970   12.5500 C.3   171  ARG171      0.0307
    165  CG        32.6210   12.7980   13.9240 C.3   171  ARG171      0.0489
    166  CD        31.1550   12.5650   14.2410 C.3   171  ARG171      0.2205
    167  NE        30.5620   11.5410   13.3870 N.pl3 171  ARG171     -0.0865
    168  CZ        29.2540   11.3760   13.2410 C.cat 171  ARG171      0.5346
    169  NH1       28.4190   12.1760   13.8860 N.pl3 171  ARG171      0.1354
    170  NH2       28.7860   10.4030   12.4720 N.pl3 171  ARG171      0.1354
    171  N         25.3340   11.4640   -3.9860 N.3   197  GLY197     -0.1225
    172  CA        24.4650   11.2490   -2.8460 C.3   197  GLY197      0.1811
    173  C         23.4950   12.3720   -2.5040 C.2   197  GLY197      0.2280
    174  O         22.7300   12.2440   -1.5450 O.2   197  GLY197     -0.2866
    175  N         20.7140   13.3690   -3.7700 N.3   199  GLN199     -0.1231
    176  CA        19.5100   13.0690   -4.5320 C.3   199  GLN199      0.1698
    177  C         18.5620   12.4570   -3.5240 C.2   199  GLN199      0.2592
    178  O         18.9430   12.2260   -2.3650 O.2   199  GLN199     -0.2718
    179  CB        19.8130   12.0400   -5.6210 C.3   199  GLN199      0.0381
    180  CG        20.8860   12.4780   -6.6060 C.3   199  GLN199      0.0905
    181  CD        21.0960   11.4630   -7.7100 C.2   199  GLN199      0.2608
    182  OE1       21.7760   10.4520   -7.5230 O.2   199  GLN199     -0.2717
    183  NE2       20.5230   11.7290   -8.8690 N.am  199  GLN199     -0.0878
    184  N         17.3280   12.1860   -3.9390 N.am  200  ASP200     -0.1960
    185  CA        16.3880   11.5740   -3.0230 C.3   200  ASP200      0.1840
    186  C         16.8610   10.1350   -2.8390 C.2   200  ASP200      0.2621
    187  O         17.5850    9.5990   -3.6750 O.2   200  ASP200     -0.2715
    188  CB        14.9350   11.6540   -3.5290 C.3   200  ASP200      0.1450
    189  CG        14.7340   10.9750   -4.8660 C.2   200  ASP200      0.3671
    190  OD1       14.4310    9.7680   -4.8740 O.co2 200  ASP200     -0.2456
    191  OD2       14.8730   11.6560   -5.9060 O.co2 200  ASP200     -0.2456
    192  N         16.4930    9.5470   -1.7150 N.am  201  MET201     -0.1977
    193  CA        16.9010    8.1930   -1.3510 C.3   201  MET201      0.1605
    194  C         16.6830    7.1030   -2.3960 C.2   201  MET201      0.2287
    195  O         17.5860    6.3000   -2.6260 O.2   201  MET201     -0.2864
    196  CB        16.2550    7.7950   -0.0180 C.3   201  MET201      0.0413
    197  CG        16.7000    8.6590    1.1620 C.3   201  MET201      0.0598
    198  SD        15.8750    8.2000    2.7010 S.3   201  MET201     -0.1393
    199  CE        15.7280    6.4280    2.4970 C.3   201  MET201      0.0692
    200  N         19.0800    7.6350   -5.2870 N.3   204  VAL204     -0.1245
    201  CA        20.4410    7.1870   -4.9840 C.3   204  VAL204      0.1561
    202  C         20.4960    5.6560   -5.1000 C.2   204  VAL204      0.2260
    203  O         21.4170    5.0870   -5.7090 O.2   204  VAL204     -0.2867
    204  CB        20.8920    7.6500   -3.5770 C.3   204  VAL204      0.0252
    205  CG1       22.2620    7.0610   -3.2520 C.3   204  VAL204      0.0019
    206  CG2       20.9590    9.1770   -3.5260 C.3   204  VAL204      0.0019
@<TRIPOS>BOND
     1   183   181   am
     2   181   182    2
     3   181   180    1
     4   180   179    1
     5   191   189   ar
     6   203   202    2
     7   179   176    1
     8   200   201    1
     9   202   201    1
    10   201   204    1
    11   190   189   ar
    12   189   188    1
    13   176   175    1
    14   176   177    1
    15   171   172    1
    16   184   177   am
    17   184   185    1
    18   187   186    2
    19   204   206    1
    20   204   205    1
    21   188   185    1
    22   177   178    2
    23   185   186    1
    24   172   173    1
    25   186   192   am
    26   195   194    2
    27   173   174    2
    28   194   193    1
    29   192   193    1
    30    48    47    2
    31   193   196    1
    32    47    49   am
    33    47    46    1
    34    46    45    1
    35   196   197    1
    36    45    42    1
    37    79    77    1
    38    44    43    2
    39   197   198    1
    40    42    43    1
    41    42    41    1
    42    15    14    2
    43    77    78    1
    44    77    76    2
    45   199   198    1
    46    16    13    1
    47    41    36   am
    48    20    19    2
    49    14    13    1
    50    14    17   am
    51    76    75    1
    52    37    36    2
    53    13    12    1
    54    36    35    1
    55    19    18    1
    56    19    21   am
    57    40    38    1
    58    18    17    1
    59   136   134   ar
    60   136   138   ar
    61    24    23    2
    62    26    27    1
    63    26    25    1
    64    22    21    1
    65    22    23    1
    66    22    25    1
    67   134   133   ar
    68    38    35    1
    69    38    39    1
    70   131   130    2
    71   138   137   ar
    72    27    28    1
    73    23    30   am
    74    75    74    1
    75    35    34    1
    76    12    10   am
    77   133   132    1
    78   133   135   ar
    79   132   129    1
    80    11    10    2
    81    74    73    1
    82   137   135   ar
    83    61    62    1
    84    34    32   am
    85   129   130    1
    86   129   128    1
    87    62    65    1
    88    62    63    1
    89    10     9    1
    90   130   139   am
    91    33    32    2
    92    30    31    1
    93    32    31    1
    94    29    28    1
    95    65    66    1
    96    67    66   ar
    97   146   144   ar
    98   146   148   ar
    99   143   144    1
   100   143   140    1
   101    66    68   ar
   102    63    64    2
   103   144   145   ar
   104    73    70    1
   105   139   140    1
   106   148   147   ar
   107   140   141    1
   108     1     7    1
   109     1     2    1
   110     9     8    1
   111     4     3    2
   112     8     3   am
   113     3     2    1
   114   145   147   ar
   115    69    70    1
   116    70    71    1
   117     7     6    1
   118     2     5    1
   119   141   142    2
   120   124   123   ar
   121   124   126   ar
   122   123   122    1
   123   123   125   ar
   124   122   119    1
   125   125   127   ar
   126   126   127   ar
   127    71    72    2
   128    71    80   am
   129     6     5    1
   130   121   120    2
   131    80    81    1
   132   119   120    1
   133   119   118    1
   134    85    86    1
   135    85    87    1
   136    85    84    1
   137   102   101    2
   138   163   162    2
   139   118   108   am
   140   105   103    1
   141    81    84    1
   142    81    82    1
   143   108   107    1
   144   108   109    2
   145   162   161    1
   146   107   106    1
   147   107   110    1
   148   103   104    1
   149   103   100    1
   150   101   106   am
   151   101   100    1
   152    97    96    1
   153   113   115   ar
   154   113   111   ar
   155   115   116   ar
   156   100    99    1
   157   110   111    1
   158    94    95    1
   159    94    93    1
   160    82    83    2
   161    96    95    2
   162    96    98    1
   163   111   112   ar
   164    92    89    1
   165    92    93    1
   166   161   164    1
   167   161   160    1
   168    88    89    1
   169   170   168    1
   170    89    90    1
   171   164   165    1
   172   116   117    1
   173   116   114   ar
   174   112   114   ar
   175   168   167    2
   176   168   169    1
   177   167   166    1
   178    90    91    2
   179   165   166    1
   180   158   157    1
   181    60    58    1
   182   159   157    1
   183   157   156    2
   184    58    59    1
   185    58    57    2
   186   156   155    1
   187    57    56    1
   188   155   154    1
   189   153   154    1
   190   153   150    1
   191    56    55    1
   192    55    54    1
   193    50    51    1
   194   149   150    1
   195    54    51    1
   196   150   151    1
   197   152   151    2
   198    51    52    1
   199    52    53    2
