@<TRIPOS>MOLECULE
tmp/1ziwA04.pdb
 117 107 0 0 0
SMALL
GASTEIGER

@<TRIPOS>ATOM
      1  N         26.6810   -9.3510   14.9320 N.3   328  GLU328     -0.1231
      2  CA        27.4790   -9.2200   13.7290 C.3   328  GLU328      0.1699
      3  C         26.7600   -9.7090   12.5010 C.2   328  GLU328      0.2592
      4  O         25.7950  -10.4760   12.5990 O.2   328  GLU328     -0.2718
      5  CB        28.8220   -9.9180   13.9010 C.3   328  GLU328      0.0402
      6  CG        28.7590  -11.4050   13.9820 C.3   328  GLU328      0.1161
      7  CD        29.9160  -11.9480   14.8170 C.2   328  GLU328      0.3649
      8  OE1       30.5660  -11.1430   15.5310 O.co2 328  GLU328     -0.2457
      9  OE2       30.1520  -13.1700   14.7930 O.co2 328  GLU328     -0.2457
     10  N         27.2690   -9.2890   11.3460 N.am  329  ASP329     -0.1974
     11  CA        26.7930   -9.7220   10.0150 C.3   329  ASP329      0.1709
     12  C         25.3030   -9.5240    9.8110 C.2   329  ASP329      0.2293
     13  O         24.5440  -10.4900    9.7870 O.2   329  ASP329     -0.2864
     14  CB        27.1730  -11.1870    9.7320 C.3   329  ASP329      0.1436
     15  CG        28.6550  -11.4370    9.8280 C.2   329  ASP329      0.3671
     16  OD1       29.4800  -10.6140    9.3160 O.co2 329  ASP329     -0.2456
     17  OD2       29.0060  -12.4710   10.4150 O.co2 329  ASP329     -0.2456
     18  N         29.9860   -6.4560   26.6020 N.3   348  TYR348     -0.1241
     19  CA        30.5500   -6.8070   25.3170 C.3   348  TYR348      0.1605
     20  C         29.5330   -6.5930   24.2390 C.2   348  TYR348      0.2264
     21  O         28.3980   -7.0590   24.3630 O.2   348  TYR348     -0.2867
     22  CB        30.9940   -8.2600   25.3300 C.3   348  TYR348      0.0534
     23  CG        31.4380   -8.7880   23.9900 C.ar  348  TYR348     -0.0201
     24  CD1       32.7860   -8.9340   23.7030 C.ar  348  TYR348     -0.0009
     25  CD2       30.5020   -9.1890   23.0260 C.ar  348  TYR348     -0.0009
     26  CE1       33.2060   -9.4750   22.5000 C.ar  348  TYR348      0.0417
     27  CE2       30.9140   -9.6850   21.7740 C.ar  348  TYR348      0.0417
     28  CZ        32.2760   -9.8460   21.5450 C.ar  348  TYR348      0.1957
     29  OH        32.6990  -10.3830   20.3610 O.3   348  TYR348     -0.2866
     30  N         29.4050   -6.8060   19.9220 N.3   350  SER350     -0.1217
     31  CA        29.9540   -6.9390   18.5830 C.3   350  SER350      0.1889
     32  C         28.9870   -6.4150   17.5190 C.2   350  SER350      0.2288
     33  O         27.8880   -6.9390   17.3420 O.2   350  SER350     -0.2866
     34  CB        30.4020   -8.3500   18.2310 C.3   350  SER350      0.2089
     35  OG        31.1100   -8.2840   16.9700 O.3   350  SER350     -0.2183
     36  N         30.3560   -6.0130   14.3940 N.3   352  SER352     -0.1217
     37  CA        31.1700   -6.2970   13.2050 C.3   352  SER352      0.1889
     38  C         30.2710   -6.5880   12.0080 C.2   352  SER352      0.2288
     39  O         29.4270   -7.5170   12.0430 O.2   352  SER352     -0.2866
     40  CB        32.1220   -7.4710   13.4620 C.3   352  SER352      0.2089
     41  OG        32.8140   -7.8550   12.2540 O.3   352  SER352     -0.2183
     42  N         33.9810   -3.8290   25.7300 N.3   376  ILE376     -0.1245
     43  CA        34.4520   -4.2420   24.4060 C.3   376  ILE376      0.1561
     44  C         33.4270   -3.8480   23.3390 C.2   376  ILE376      0.2260
     45  O         32.2340   -4.1370   23.4670 O.2   376  ILE376     -0.2867
     46  CB        34.7330   -5.7520   24.3230 C.3   376  ILE376      0.0252
     47  CG1       35.8030   -6.1590   25.3440 C.3   376  ILE376      0.0019
     48  CG2       35.1870   -6.1520   22.8500 C.3   376  ILE376      0.0019
     49  CD1       35.8750   -7.6290   25.5920 C.3   376  ILE376      0.0001
     50  N         33.1100   -3.9490   19.1260 N.3   378  ASN378     -0.1240
     51  CA        33.7120   -4.3600   17.8710 C.3   378  ASN378      0.1653
     52  C         32.9580   -3.6920   16.7580 C.2   378  ASN378      0.2266
     53  O         31.7690   -3.9430   16.5890 O.2   378  ASN378     -0.2867
     54  CB        33.6610   -5.8600   17.7560 C.3   378  ASN378      0.1155
     55  CG        34.5500   -6.3870   16.6540 C.2   378  ASN378      0.2627
     56  OD1       34.6480   -5.8140   15.5670 O.2   378  ASN378     -0.2716
     57  ND2       35.1780   -7.5220   16.9400 N.am  378  ASN378     -0.0877
     58  N         34.3530   -3.5520   13.4070 N.3   380  THR380     -0.1203
     59  CA        35.0140   -3.9060   12.1630 C.3   380  THR380      0.1994
     60  C         34.0230   -4.0340   11.0280 C.2   380  THR380      0.2617
     61  O         32.8340   -4.3560   11.2280 O.2   380  THR380     -0.2717
     62  CB        35.8220   -5.2380   12.2530 C.3   380  THR380      0.1784
     63  OG1       34.9830   -6.2720   12.7910 O.3   380  THR380     -0.2211
     64  CG2       36.9800   -5.0700   13.1840 C.3   380  THR380      0.0376
     65  N         34.5310   -3.7920    9.8240 N.am  381  LYS381     -0.1979
     66  CA        33.8370   -4.1740    8.5870 C.3   381  LYS381      0.1596
     67  C         32.5130   -3.4890    8.4360 C.2   381  LYS381      0.2287
     68  O         31.5060   -4.1090    8.0300 O.2   381  LYS381     -0.2864
     69  CB        33.6600   -5.6950    8.5640 C.3   381  LYS381      0.0298
     70  CG        34.9970   -6.3800    8.4520 C.3   381  LYS381      0.0038
     71  CD        34.9660   -7.7970    8.9050 C.3   381  LYS381      0.0206
     72  CE        34.6960   -8.7760    7.7870 C.3   381  LYS381      0.1093
     73  NZ        34.6320  -10.1340    8.4370 N.3   381  LYS381     -0.1314
     74  N         38.3870   -1.9680   25.0680 N.3   400  VAL400     -0.1245
     75  CA        38.8360   -2.4310   23.7440 C.3   400  VAL400      0.1561
     76  C         37.8790   -1.8590   22.6740 C.2   400  VAL400      0.2260
     77  O         36.6500   -2.0220   22.7330 O.2   400  VAL400     -0.2867
     78  CB        38.8900   -3.9950   23.6390 C.3   400  VAL400      0.0252
     79  CG1       39.3380   -4.4470   22.2500 C.3   400  VAL400      0.0019
     80  CG2       39.8070   -4.6240   24.8080 C.3   400  VAL400      0.0019
     81  N         37.5700   -1.9160   18.6160 N.3   402  ASP402     -0.1239
     82  CA        38.0660   -2.4450   17.3460 C.3   402  ASP402      0.1674
     83  C         37.4210   -1.7110   16.1740 C.2   402  ASP402      0.2266
     84  O         36.2120   -1.8550   15.9060 O.2   402  ASP402     -0.2867
     85  CB        37.8320   -3.9420   17.2330 C.3   402  ASP402      0.1410
     86  CG        38.6760   -4.5710   16.1580 C.2   402  ASP402      0.3668
     87  OD1       39.2030   -3.8480   15.2960 O.co2 402  ASP402     -0.2456
     88  OD2       38.8050   -5.7990   16.1680 O.co2 402  ASP402     -0.2456
     89  N         39.5680   -2.7750    9.6220 N.3   405  LEU405     -0.1245
     90  CA        38.8260   -3.3180    8.4690 C.3   405  LEU405      0.1561
     91  C         37.6540   -2.4110    8.1620 C.2   405  LEU405      0.2260
     92  O         36.5130   -2.8610    7.9560 O.2   405  LEU405     -0.2867
     93  CB        38.3420   -4.7630    8.7410 C.3   405  LEU405      0.0270
     94  CG        39.4990   -5.7720    8.9300 C.3   405  LEU405      0.0019
     95  CD1       38.9760   -7.0960    9.4730 C.3   405  LEU405      0.0001
     96  CD2       40.1590   -6.0080    7.6080 C.3   405  LEU405      0.0001
     97  N         42.9920   -0.7910   24.5380 N.3   425  GLU425     -0.1245
     98  CA        43.4400   -1.1440   23.2040 C.3   425  GLU425      0.1567
     99  C         42.6000   -0.4320   22.1690 C.2   425  GLU425      0.2260
    100  O         41.3870   -0.4660   22.2380 O.2   425  GLU425     -0.2867
    101  CB        43.3440   -2.6350   22.9410 C.3   425  GLU425      0.0388
    102  CG        43.6640   -2.9570   21.4570 C.3   425  GLU425      0.1160
    103  CD        43.5670   -4.4160   21.1290 C.2   425  GLU425      0.3649
    104  OE1       44.0150   -5.2110   21.9790 O.co2 425  GLU425     -0.2457
    105  OE2       43.0250   -4.7620   20.0330 O.co2 425  GLU425     -0.2457
    106  N         42.3030   -0.7340   18.0190 N.3   427  TYR427     -0.1241
    107  CA        42.6900   -1.4280   16.8210 C.3   427  TYR427      0.1605
    108  C         42.2060   -0.5790   15.6360 C.2   427  TYR427      0.2264
    109  O         41.0100   -0.3440   15.4830 O.2   427  TYR427     -0.2867
    110  CB        42.0700   -2.8380   16.8160 C.3   427  TYR427      0.0534
    111  CG        42.6520   -3.7330   15.7690 C.ar  427  TYR427     -0.0201
    112  CD1       43.7250   -4.5890   16.0650 C.ar  427  TYR427     -0.0009
    113  CD2       42.1490   -3.7150   14.4440 C.ar  427  TYR427     -0.0009
    114  CE1       44.3050   -5.4150   15.0310 C.ar  427  TYR427      0.0417
    115  CE2       42.6830   -4.5410   13.4350 C.ar  427  TYR427      0.0417
    116  CZ        43.7700   -5.3810   13.7300 C.ar  427  TYR427      0.1957
    117  OH        44.3110   -6.1810   12.7200 O.3   427  TYR427     -0.2866
@<TRIPOS>BOND
     1    96    94    1
     2    72    73    1
     3    72    71    1
     4    92    91    2
     5    68    67    2
     6    91    90    1
     7    67    66    1
     8    70    69    1
     9    70    71    1
    10    90    93    1
    11    90    89    1
    12    69    66    1
    13    66    65    1
    14    93    94    1
    15    94    95    1
    16    16    15   ar
    17    14    15    1
    18    14    11    1
    19    13    12    2
    20    12    11    1
    21    65    60   am
    22    15    17   ar
    23    11    10    1
    24    60    61    2
    25    60    59    1
    26    10     3   am
    27    38    39    2
    28    38    37    1
    29    59    62    1
    30    59    58    1
    31    62    63    1
    32    62    64    1
    33    41    40    1
    34     3     4    2
    35     3     2    1
    36   117   116    1
    37    37    40    1
    38    37    36    1
    39   115   116   ar
    40   115   113   ar
    41     2     5    1
    42     2     1    1
    43   116   114   ar
    44     5     6    1
    45     6     7    1
    46   113   111   ar
    47     9     7   ar
    48     7     8   ar
    49   114   112   ar
    50    87    86   ar
    51   109   108    2
    52    56    55    2
    53   108   107    1
    54   111   112   ar
    55   111   110    1
    56    84    83    2
    57    86    88   ar
    58    86    85    1
    59    83    82    1
    60    53    52    2
    61    55    57   am
    62    55    54    1
    63    52    51    1
    64   110   107    1
    65   107   106    1
    66    35    34    1
    67    85    82    1
    68    33    32    2
    69    82    81    1
    70    32    31    1
    71    54    51    1
    72    51    50    1
    73    34    31    1
    74    31    30    1
    75   105   103   ar
    76    29    28    1
    77   103   102    1
    78   103   104   ar
    79   102   101    1
    80    28    27   ar
    81    28    26   ar
    82    27    25   ar
    83    99   100    2
    84    99    98    1
    85    79    78    1
    86    26    24   ar
    87    76    77    2
    88    76    75    1
    89    48    46    1
    90   101    98    1
    91    25    23   ar
    92    98    97    1
    93    44    45    2
    94    44    43    1
    95    78    75    1
    96    78    80    1
    97    24    23   ar
    98    75    74    1
    99    23    22    1
   100    20    21    2
   101    20    19    1
   102    46    43    1
   103    46    47    1
   104    43    42    1
   105    19    22    1
   106    19    18    1
   107    47    49    1
