@<TRIPOS>MOLECULE
tmp/1zj0A00.pdb
 101 97 0 0 0
SMALL
GASTEIGER

@<TRIPOS>ATOM
      1  N         20.8090   62.8600   37.3270 N.3   153  HIS153     -0.1241
      2  CA        20.0030   63.2310   38.4890 C.3   153  HIS153      0.1621
      3  C         19.6160   64.7030   38.2900 C.2   153  HIS153      0.2264
      4  O         20.4780   65.5460   38.0330 O.2   153  HIS153     -0.2867
      5  CB        20.8300   63.0560   39.7650 C.3   153  HIS153      0.0745
      6  CG        20.0530   63.2700   41.0260 C.ar  153  HIS153      0.0817
      7  ND1       19.9650   62.3170   42.0190 N.ar  153  HIS153     -0.2268
      8  CD2       19.3270   64.3300   41.4550 C.ar  153  HIS153      0.1154
      9  CE1       19.2180   62.7800   43.0060 C.ar  153  HIS153      0.1986
     10  NE2       18.8190   63.9990   42.6890 N.ar  153  HIS153     -0.2212
     11  N         18.9710   67.0690   40.2830 N.3   155  SER155     -0.1202
     12  CA        19.5180   68.0260   41.2380 C.3   155  SER155      0.2020
     13  C         21.0040   68.3210   41.0250 C.2   155  SER155      0.2618
     14  O         21.5310   69.2700   41.6060 O.2   155  SER155     -0.2717
     15  CB        19.3170   67.5190   42.6730 C.3   155  SER155      0.2103
     16  OG        17.9430   67.4700   43.0310 O.3   155  SER155     -0.2182
     17  N         21.6790   67.5350   40.1890 N.am  156  PHE156     -0.1975
     18  CA        23.1160   67.7410   39.9980 C.3   156  PHE156      0.1639
     19  C         23.6310   67.8590   38.5700 C.2   156  PHE156      0.2290
     20  O         24.8470   67.8920   38.3630 O.2   156  PHE156     -0.2864
     21  CB        23.9000   66.6080   40.6740 C.3   156  PHE156      0.0560
     22  CG        23.5510   66.3960   42.1170 C.ar  156  PHE156     -0.0200
     23  CD1       22.4590   65.6090   42.4750 C.ar  156  PHE156     -0.0042
     24  CD2       24.3200   66.9740   43.1230 C.ar  156  PHE156     -0.0042
     25  CE1       22.1360   65.3990   43.8170 C.ar  156  PHE156     -0.0003
     26  CE2       24.0070   66.7730   44.4680 C.ar  156  PHE156     -0.0003
     27  CZ        22.9130   65.9830   44.8170 C.ar  156  PHE156     -0.0000
     28  N         27.1820   63.9750   45.3410 N.3   165  THR165     -0.1218
     29  CA        27.0740   63.2500   46.6010 C.3   165  THR165      0.1862
     30  C         27.4650   61.7750   46.4880 C.2   165  THR165      0.2287
     31  O         26.7300   60.8870   46.9310 O.2   165  THR165     -0.2866
     32  CB        25.6530   63.3580   47.2090 C.3   165  THR165      0.1770
     33  OG1       24.6820   62.8750   46.2740 O.3   165  THR165     -0.2211
     34  CG2       25.3390   64.8050   47.5640 C.3   165  THR165      0.0375
     35  N         26.4160   62.5800   37.9240 N.3   184  TYR184     -0.1241
     36  CA        25.7960   61.9560   39.0760 C.3   184  TYR184      0.1605
     37  C         24.4900   61.3990   38.5180 C.2   184  TYR184      0.2264
     38  O         23.5770   62.1520   38.1640 O.2   184  TYR184     -0.2867
     39  CB        25.5050   62.9500   40.2060 C.3   184  TYR184      0.0534
     40  CG        25.0900   62.2300   41.4740 C.ar  184  TYR184     -0.0201
     41  CD1       26.0400   61.5950   42.2770 C.ar  184  TYR184     -0.0009
     42  CD2       23.7450   62.1030   41.8220 C.ar  184  TYR184     -0.0009
     43  CE1       25.6610   60.8430   43.3910 C.ar  184  TYR184      0.0417
     44  CE2       23.3530   61.3520   42.9370 C.ar  184  TYR184      0.0417
     45  CZ        24.3180   60.7240   43.7130 C.ar  184  TYR184      0.1957
     46  OH        23.9400   59.9580   44.7950 O.3   184  TYR184     -0.2866
     47  N         20.9650   59.1840   38.7330 N.3   186  MET186     -0.1245
     48  CA        19.9810   58.8890   39.7690 C.3   186  MET186      0.1570
     49  C         19.6090   57.4170   39.6650 C.2   186  MET186      0.2261
     50  O         19.4290   56.8930   38.5680 O.2   186  MET186     -0.2867
     51  CB        18.7390   59.7720   39.6160 C.3   186  MET186      0.0387
     52  CG        17.6910   59.5670   40.7130 C.3   186  MET186      0.0595
     53  SD        16.6930   61.0500   40.9740 S.3   186  MET186     -0.1393
     54  CE        16.3970   60.9610   42.7530 C.3   186  MET186      0.0692
     55  N         24.2950   56.9480   49.8370 N.3   220  TRP220     -0.1241
     56  CA        23.0060   56.8660   49.1660 C.3   220  TRP220      0.1605
     57  C         22.6660   55.4660   48.6790 C.2   220  TRP220      0.2264
     58  O         22.0190   55.2750   47.6450 O.2   220  TRP220     -0.2867
     59  CB        22.9250   57.8880   48.0300 C.3   220  TRP220      0.0550
     60  CG        22.7550   59.2800   48.5650 C.ar  220  TRP220      0.0003
     61  CD1       23.6950   60.2710   48.5950 C.ar  220  TRP220      0.0946
     62  CD2       21.5940   59.8080   49.2220 C.ar  220  TRP220      0.0152
     63  NE1       23.1920   61.3820   49.2340 N.ar  220  TRP220     -0.2442
     64  CE2       21.9060   61.1240   49.6290 C.ar  220  TRP220      0.0810
     65  CE3       20.3210   59.2940   49.5110 C.ar  220  TRP220      0.0012
     66  CZ2       20.9880   61.9380   50.3110 C.ar  220  TRP220      0.0191
     67  CZ3       19.4090   60.1030   50.1900 C.ar  220  TRP220      0.0001
     68  CH2       19.7510   61.4100   50.5810 C.ar  220  TRP220      0.0015
     69  N         22.2050   53.7350   44.9460 N.3   223  GLU223     -0.1245
     70  CA        22.5600   54.8090   44.0230 C.3   223  GLU223      0.1567
     71  C         24.0500   55.1090   44.0400 C.2   223  GLU223      0.2260
     72  O         24.6320   55.4660   43.0110 O.2   223  GLU223     -0.2867
     73  CB        21.7850   56.0780   44.3660 C.3   223  GLU223      0.0388
     74  CG        21.9860   57.2010   43.3740 C.3   223  GLU223      0.1160
     75  CD        21.0640   58.3640   43.6530 C.2   223  GLU223      0.3649
     76  OE1       21.4020   59.2050   44.5150 O.co2 223  GLU223     -0.2457
     77  OE2       19.9880   58.4200   43.0220 O.co2 223  GLU223     -0.2457
     78  N         11.3450   66.7560   38.8070 N.3   246  ASP246     -0.1239
     79  CA        10.4670   67.0430   39.9330 C.3   246  ASP246      0.1674
     80  C         10.1590   68.5220   39.7770 C.2   246  ASP246      0.2266
     81  O         10.9280   69.3750   40.2200 O.2   246  ASP246     -0.2867
     82  CB        11.1790   66.8040   41.2620 C.3   246  ASP246      0.1410
     83  CG        10.2600   66.9970   42.4540 C.2   246  ASP246      0.3668
     84  OD1        9.3250   67.8170   42.3550 O.co2 246  ASP246     -0.2456
     85  OD2       10.4800   66.3350   43.4900 O.co2 246  ASP246     -0.2456
     86  N          9.8490   70.7430   43.0100 N.3   249  LEU249     -0.1231
     87  CA        11.1300   71.0940   43.6060 C.3   249  LEU249      0.1693
     88  C         12.0660   71.8920   42.6970 C.2   249  LEU249      0.2591
     89  O         12.8460   72.7170   43.1790 O.2   249  LEU249     -0.2718
     90  CB        11.8350   69.8050   44.0570 C.3   249  LEU249      0.0284
     91  CG        13.0340   69.8280   45.0160 C.3   249  LEU249      0.0019
     92  CD1       14.2430   70.4780   44.3600 C.3   249  LEU249      0.0001
     93  CD2       12.6430   70.5590   46.2930 C.3   249  LEU249      0.0001
     94  N         11.9750   71.6660   41.3890 N.am  250  LEU250     -0.1980
     95  CA        12.8770   72.3270   40.4470 C.3   250  LEU250      0.1596
     96  C         12.2760   73.2320   39.3820 C.2   250  LEU250      0.2287
     97  O         13.0160   73.8250   38.5960 O.2   250  LEU250     -0.2864
     98  CB        13.7390   71.2640   39.7520 C.3   250  LEU250      0.0297
     99  CG        14.5710   70.3830   40.6830 C.3   250  LEU250      0.0022
    100  CD1       15.1530   69.1950   39.9090 C.3   250  LEU250      0.0001
    101  CD2       15.6810   71.2160   41.2950 C.3   250  LEU250      0.0001
@<TRIPOS>BOND
     1     1     2    1
     2    35    36    1
     3     4     3    2
     4    38    37    2
     5     3     2    1
     6    20    19    2
     7     2     5    1
     8    37    36    1
     9    50    49    2
    10    19    18    1
    11    97    96    2
    12    47    48    1
    13    78    79    1
    14    36    39    1
    15    96    95    1
    16    51    48    1
    17    51    52    1
    18    49    48    1
    19    98    95    1
    20    98    99    1
    21     5     6    1
    22    80    79    1
    23    80    81    2
    24   100    99    1
    25    79    82    1
    26    18    17    1
    27    18    21    1
    28    17    13   am
    29    39    40    1
    30    11    12    1
    31    95    94    1
    32    21    22    1
    33    99   101    1
    34    52    53    1
    35    53    54    1
    36    13    12    1
    37    13    14    2
    38     6     8   ar
    39     6     7   ar
    40    12    15    1
    41    82    83    1
    42    94    88   am
    43     8    10   ar
    44    40    42   ar
    45    40    41   ar
    46    42    44   ar
    47     7     9   ar
    48    22    23   ar
    49    22    24   ar
    50    41    43   ar
    51    84    83   ar
    52    83    85   ar
    53    23    25   ar
    54    15    16    1
    55    10     9   ar
    56    88    89    2
    57    88    87    1
    58    44    45   ar
    59    86    87    1
    60    72    71    2
    61    77    75   ar
    62    24    26   ar
    63    74    75    1
    64    74    73    1
    65    43    45   ar
    66    87    90    1
    67    75    76   ar
    68    45    46    1
    69    25    27   ar
    70    70    71    1
    71    70    73    1
    72    70    69    1
    73    90    91    1
    74    92    91    1
    75    26    27   ar
    76    91    93    1
    77    28    29    1
    78    33    32    1
    79    30    29    1
    80    30    31    2
    81    29    32    1
    82    32    34    1
    83    58    57    2
    84    59    60    1
    85    59    56    1
    86    60    61   ar
    87    60    62   ar
    88    61    63   ar
    89    57    56    1
    90    56    55    1
    91    62    65   ar
    92    62    64   ar
    93    63    64   ar
    94    65    67   ar
    95    64    66   ar
    96    67    68   ar
    97    66    68   ar
