@<TRIPOS>MOLECULE
tmp/1zj1A00.pdb
 93 90 0 0 0
SMALL
GASTEIGER

@<TRIPOS>ATOM
      1  N         20.6910   62.9950   37.1370 N.3   151  HIS151     -0.1241
      2  CA        19.8810   63.3630   38.2930 C.3   151  HIS151      0.1621
      3  C         19.4870   64.8290   38.0890 C.2   151  HIS151      0.2264
      4  O         20.3370   65.6710   37.8120 O.2   151  HIS151     -0.2867
      5  CB        20.7060   63.1860   39.5700 C.3   151  HIS151      0.0745
      6  CG        19.9720   63.3100   40.8660 C.ar  151  HIS151      0.0817
      7  ND1       19.3250   64.4660   41.2480 N.ar  151  HIS151     -0.2268
      8  CD2       19.7550   62.4130   41.8570 C.ar  151  HIS151      0.1154
      9  CE1       18.7410   64.2740   42.4180 C.ar  151  HIS151      0.1986
     10  NE2       18.9860   63.0350   42.8090 N.ar  151  HIS151     -0.2212
     11  N         18.8500   67.2080   40.0880 N.3   153  SER153     -0.1202
     12  CA        19.4240   68.1710   41.0240 C.3   153  SER153      0.2020
     13  C         20.9190   68.4210   40.8250 C.2   153  SER153      0.2618
     14  O         21.4910   69.2920   41.4820 O.2   153  SER153     -0.2717
     15  CB        19.1940   67.7050   42.4670 C.3   153  SER153      0.2103
     16  OG        17.8150   67.6540   42.7920 O.3   153  SER153     -0.2182
     17  N         21.5580   67.6780   39.9230 N.am  154  PHE154     -0.1975
     18  CA        22.9990   67.8450   39.7280 C.3   154  PHE154      0.1639
     19  C         23.4950   67.9880   38.2960 C.2   154  PHE154      0.2290
     20  O         24.7040   68.0180   38.0700 O.2   154  PHE154     -0.2864
     21  CB        23.7580   66.6660   40.3490 C.3   154  PHE154      0.0560
     22  CG        23.5030   66.4730   41.8150 C.ar  154  PHE154     -0.0200
     23  CD1       22.4310   65.7030   42.2540 C.ar  154  PHE154     -0.0042
     24  CD2       24.3420   67.0590   42.7580 C.ar  154  PHE154     -0.0042
     25  CE1       22.1950   65.5160   43.6140 C.ar  154  PHE154     -0.0003
     26  CE2       24.1160   66.8790   44.1210 C.ar  154  PHE154     -0.0003
     27  CZ        23.0410   66.1070   44.5500 C.ar  154  PHE154     -0.0000
     28  N         26.9760   64.0980   45.1300 N.3   163  THR163     -0.1218
     29  CA        26.8720   63.3840   46.3970 C.3   163  THR163      0.1862
     30  C         27.2830   61.9150   46.2990 C.2   163  THR163      0.2287
     31  O         26.5640   61.0270   46.7550 O.2   163  THR163     -0.2866
     32  CB        25.4430   63.4770   46.9920 C.3   163  THR163      0.1770
     33  OG1       24.4810   63.0390   46.0260 O.3   163  THR163     -0.2211
     34  CG2       25.1350   64.9120   47.3940 C.3   163  THR163      0.0375
     35  N         26.2440   62.7090   37.7270 N.3   182  TYR182     -0.1241
     36  CA        25.6150   62.0860   38.8740 C.3   182  TYR182      0.1605
     37  C         24.3140   61.5180   38.3160 C.2   182  TYR182      0.2264
     38  O         23.4080   62.2660   37.9370 O.2   182  TYR182     -0.2867
     39  CB        25.3010   63.0850   39.9900 C.3   182  TYR182      0.0534
     40  CG        24.8870   62.3730   41.2600 C.ar  182  TYR182     -0.0201
     41  CD1       25.8330   61.7190   42.0500 C.ar  182  TYR182     -0.0009
     42  CD2       23.5450   62.2850   41.6290 C.ar  182  TYR182     -0.0009
     43  CE1       25.4570   60.9870   43.1730 C.ar  182  TYR182      0.0417
     44  CE2       23.1530   61.5510   42.7560 C.ar  182  TYR182      0.0417
     45  CZ        24.1150   60.9050   43.5190 C.ar  182  TYR182      0.1957
     46  OH        23.7410   60.1640   44.6150 O.3   182  TYR182     -0.2866
     47  N         20.7850   59.3080   38.5400 N.3   184  MET184     -0.1245
     48  CA        19.7830   59.0170   39.5610 C.3   184  MET184      0.1570
     49  C         19.3850   57.5500   39.4690 C.2   184  MET184      0.2261
     50  O         19.1830   57.0200   38.3780 O.2   184  MET184     -0.2867
     51  CB        18.5540   59.9120   39.3940 C.3   184  MET184      0.0387
     52  CG        17.4970   59.7190   40.4840 C.3   184  MET184      0.0595
     53  SD        16.5040   61.2050   40.7470 S.3   184  MET184     -0.1393
     54  CE        16.1740   61.0660   42.5100 C.3   184  MET184      0.0692
     55  N         24.1000   57.1430   49.6570 N.3   218  TRP218     -0.1241
     56  CA        22.8050   57.0820   48.9930 C.3   218  TRP218      0.1605
     57  C         22.4600   55.6840   48.5000 C.2   218  TRP218      0.2264
     58  O         21.8560   55.4980   47.4420 O.2   218  TRP218     -0.2867
     59  CB        22.7170   58.1190   47.8670 C.3   218  TRP218      0.0550
     60  CG        22.5940   59.5160   48.4170 C.ar  218  TRP218      0.0003
     61  CD1       23.5680   60.4730   48.4580 C.ar  218  TRP218      0.0946
     62  CD2       21.4550   60.0750   49.0900 C.ar  218  TRP218      0.0152
     63  NE1       23.1100   61.5890   49.1190 N.ar  218  TRP218     -0.2442
     64  CE2       21.8170   61.3720   49.5180 C.ar  218  TRP218      0.0810
     65  CE3       20.1660   59.6040   49.3770 C.ar  218  TRP218      0.0012
     66  CZ2       20.9340   62.2060   50.2180 C.ar  218  TRP218      0.0191
     67  CZ3       19.2870   60.4340   50.0750 C.ar  218  TRP218      0.0001
     68  CH2       19.6790   61.7200   50.4860 C.ar  218  TRP218      0.0015
     69  N         21.9870   53.8850   44.8060 N.3   221  GLU221     -0.1245
     70  CA        22.3180   54.9520   43.8640 C.3   221  GLU221      0.1567
     71  C         23.8100   55.2520   43.8850 C.2   221  GLU221      0.2260
     72  O         24.4000   55.5960   42.8550 O.2   221  GLU221     -0.2867
     73  CB        21.5370   56.2230   44.1960 C.3   221  GLU221      0.0388
     74  CG        21.7670   57.3450   43.2070 C.3   221  GLU221      0.1160
     75  CD        20.8570   58.5270   43.4540 C.2   221  GLU221      0.3649
     76  OE1       21.1840   59.3720   44.3180 O.co2 221  GLU221     -0.2457
     77  OE2       19.8020   58.6010   42.7900 O.co2 221  GLU221     -0.2457
     78  N          9.6790   70.9240   42.7570 N.3   247  LEU247     -0.1231
     79  CA        10.9390   71.3100   43.3710 C.3   247  LEU247      0.1693
     80  C         11.9020   72.0710   42.4570 C.2   247  LEU247      0.2591
     81  O         12.7320   72.8480   42.9350 O.2   247  LEU247     -0.2718
     82  CB        11.6340   70.0540   43.9030 C.3   247  LEU247      0.0284
     83  CG        12.8780   70.2040   44.7750 C.3   247  LEU247      0.0019
     84  CD1       12.5250   70.9490   46.0550 C.3   247  LEU247      0.0001
     85  CD2       13.4300   68.8240   45.1010 C.3   247  LEU247      0.0001
     86  N         11.7820   71.8650   41.1470 N.am  248  LEU248     -0.1980
     87  CA        12.7010   72.4940   40.2010 C.3   248  LEU248      0.1596
     88  C         12.0970   73.3740   39.1100 C.2   248  LEU248      0.2287
     89  O         12.8320   73.9600   38.3160 O.2   248  LEU248     -0.2864
     90  CB        13.5580   71.4040   39.5440 C.3   248  LEU248      0.0297
     91  CG        14.4210   70.5670   40.4910 C.3   248  LEU248      0.0022
     92  CD1       14.8490   69.2690   39.8110 C.3   248  LEU248      0.0001
     93  CD2       15.6350   71.3810   40.9140 C.3   248  LEU248      0.0001
@<TRIPOS>BOND
     1     1     2    1
     2    35    36    1
     3     4     3    2
     4    38    37    2
     5    20    19    2
     6     3     2    1
     7     2     5    1
     8    19    18    1
     9    89    88    2
    10    37    36    1
    11    50    49    2
    12    47    48    1
    13    36    39    1
    14    88    87    1
    15    51    48    1
    16    51    52    1
    17    49    48    1
    18    90    87    1
    19    90    91    1
    20     5     6    1
    21    18    17    1
    22    18    21    1
    23    92    91    1
    24    17    13   am
    25    39    40    1
    26    11    12    1
    27    87    86    1
    28    21    22    1
    29    52    53    1
    30    91    93    1
    31    53    54    1
    32    13    12    1
    33    13    14    2
    34     6     7   ar
    35     6     8   ar
    36    12    15    1
    37    86    80   am
    38     7     9   ar
    39    40    42   ar
    40    40    41   ar
    41    42    44   ar
    42    22    23   ar
    43    22    24   ar
    44     8    10   ar
    45    41    43   ar
    46    23    25   ar
    47     9    10   ar
    48    80    81    2
    49    80    79    1
    50    15    16    1
    51    44    45   ar
    52    78    79    1
    53    24    26   ar
    54    77    75   ar
    55    72    71    2
    56    43    45   ar
    57    74    75    1
    58    74    73    1
    59    79    82    1
    60    75    76   ar
    61    45    46    1
    62    25    27   ar
    63    70    71    1
    64    70    73    1
    65    70    69    1
    66    82    83    1
    67    26    27   ar
    68    83    85    1
    69    83    84    1
    70    28    29    1
    71    33    32    1
    72    30    29    1
    73    30    31    2
    74    29    32    1
    75    32    34    1
    76    58    57    2
    77    59    60    1
    78    59    56    1
    79    60    61   ar
    80    60    62   ar
    81    61    63   ar
    82    57    56    1
    83    56    55    1
    84    62    65   ar
    85    62    64   ar
    86    63    64   ar
    87    65    67   ar
    88    64    66   ar
    89    67    68   ar
    90    66    68   ar
