@<TRIPOS>MOLECULE
tmp/1zj6A00.pdb
 115 109 0 0 0
SMALL
GASTEIGER

@<TRIPOS>ATOM
      1  N         -2.4160   29.8990   31.0320 N.3    24  ASP24      -0.1225
      2  CA        -2.3820   28.4620   31.2440 C.3    24  ASP24       0.1805
      3  C         -1.0520   27.9400   30.7110 C.2    24  ASP24       0.2598
      4  O         -0.5890   28.3580   29.6460 O.2    24  ASP24      -0.2718
      5  CB        -3.5710   27.8260   30.5070 C.3    24  ASP24       0.1424
      6  CG        -3.6300   26.3150   30.6560 C.2    24  ASP24       0.3668
      7  OD1       -3.1010   25.7620   31.6420 O.co2  24  ASP24      -0.2456
      8  OD2       -4.2380   25.6710   29.7740 O.co2  24  ASP24      -0.2456
      9  N         -0.4290   27.0530   31.4720 N.am   25  ASN25      -0.1960
     10  CA         0.8500   26.4590   31.0940 C.3    25  ASN25       0.1819
     11  C          2.0690   27.3620   31.2670 C.2    25  ASN25       0.2621
     12  O          3.1590   27.0250   30.8220 O.2    25  ASN25      -0.2715
     13  CB         0.7750   25.9510   29.6550 C.3    25  ASN25       0.1195
     14  CG        -0.1700   24.7730   29.5140 C.2    25  ASN25       0.2630
     15  OD1       -0.9740   24.7110   28.5860 O.2    25  ASN25      -0.2716
     16  ND2       -0.0730   23.8280   30.4390 N.am   25  ASN25      -0.0877
     17  N          1.8880   28.5130   31.9060 N.am   26  ALA26      -0.1963
     18  CA         3.0100   29.4190   32.1380 C.3    26  ALA26       0.1728
     19  C          4.0010   28.7450   33.0970 C.2    26  ALA26       0.2617
     20  O          5.2080   28.9890   33.0330 O.2    26  ALA26      -0.2715
     21  CB         2.5120   30.7320   32.7330 C.3    26  ALA26       0.0334
     22  N          3.4750   27.9030   33.9830 N.am   27  GLY27      -0.1940
     23  CA         4.3110   27.1890   34.9370 C.3    27  GLY27       0.2014
     24  C          3.9880   27.4930   36.3930 C.2    27  GLY27       0.2639
     25  O          4.8040   27.2290   37.2910 O.2    27  GLY27      -0.2714
     26  N          2.7950   28.0250   36.6340 N.am   28  LYS28      -0.1963
     27  CA         2.3670   28.3830   37.9850 C.3    28  LYS28       0.1728
     28  C          2.3490   27.2170   38.9630 C.2    28  LYS28       0.2617
     29  O          2.8720   27.3160   40.0740 O.2    28  LYS28      -0.2715
     30  CB         0.9840   29.0400   37.9370 C.3    28  LYS28       0.0311
     31  CG         0.9110   30.2750   37.0470 C.3    28  LYS28       0.0038
     32  CD        -0.4820   30.9030   37.0630 C.3    28  LYS28       0.0206
     33  CE        -1.5310   29.9790   36.4520 C.3    28  LYS28       0.1093
     34  NZ        -1.2400   29.7010   35.0180 N.3    28  LYS28      -0.1314
     35  N          1.7460   26.1080   38.5530 N.am   29  THR29      -0.1937
     36  CA         1.6780   24.9360   39.4130 C.3    29  THR29       0.2028
     37  C          3.0660   24.3860   39.7360 C.2    29  THR29       0.2642
     38  O          3.3150   23.9310   40.8560 O.2    29  THR29      -0.2714
     39  CB         0.8190   23.8250   38.7580 C.3    29  THR29       0.1808
     40  OG1       -0.5080   24.3210   38.5330 O.3    29  THR29      -0.2208
     41  CG2        0.7380   22.5970   39.6560 C.3    29  THR29       0.0379
     42  N          3.9700   24.4500   38.7650 N.am   30  THR30      -0.1950
     43  CA         5.3310   23.9520   38.9560 C.3    30  THR30       0.1897
     44  C          6.0590   24.7900   40.0040 C.2    30  THR30       0.2313
     45  O          6.7610   24.2590   40.8620 O.2    30  THR30      -0.2863
     46  CB         6.1230   23.9670   37.6200 C.3    30  THR30       0.1794
     47  OG1        5.3920   23.2210   36.6390 O.3    30  THR30      -0.2208
     48  CG2        7.4980   23.3270   37.7860 C.3    30  THR30       0.0378
     49  N         -4.2910   31.3510   43.2850 N.3    63  MET63      -0.1245
     50  CA        -3.8300   31.1020   41.9250 C.3    63  MET63       0.1570
     51  C         -4.8950   30.9620   40.8540 C.2    63  MET63       0.2261
     52  O         -5.9520   30.3600   41.0690 O.2    63  MET63      -0.2867
     53  CB        -2.9680   29.8400   41.9110 C.3    63  MET63       0.0387
     54  CG        -2.5530   29.3780   40.5210 C.3    63  MET63       0.0595
     55  SD        -1.3960   28.0020   40.5850 S.3    63  MET63      -0.1393
     56  CE        -2.5090   26.6380   40.8280 C.3    63  MET63       0.0692
     57  N         -5.5560   31.2270   36.2000 N.3    65  ASP65      -0.1239
     58  CA        -5.1870   31.4640   34.8200 C.3    65  ASP65       0.1674
     59  C         -5.8470   32.7250   34.3280 C.2    65  ASP65       0.2266
     60  O         -7.0230   32.9520   34.5820 O.2    65  ASP65      -0.2867
     61  CB        -5.6840   30.3360   33.9200 C.3    65  ASP65       0.1410
     62  CG        -4.9120   29.0620   34.0980 C.2    65  ASP65       0.3668
     63  OD1       -3.8740   29.0800   34.7880 O.co2  65  ASP65      -0.2456
     64  OD2       -5.3430   28.0420   33.5250 O.co2  65  ASP65      -0.2456
     65  N          9.5390   32.6820   33.2540 N.3   120  ASN120     -0.1225
     66  CA         9.7610   31.2440   33.3430 C.3   120  ASN120      0.1785
     67  C         10.1740   30.5630   32.0400 C.2   120  ASN120      0.2597
     68  O         10.0360   31.1280   30.9600 O.2   120  ASN120     -0.2718
     69  CB         8.5010   30.5880   33.9260 C.3   120  ASN120      0.1169
     70  CG         8.7530   29.1850   34.4460 C.2   120  ASN120      0.2627
     71  OD1        9.8030   28.9080   35.0290 O.2   120  ASN120     -0.2716
     72  ND2        7.7810   28.2960   34.2600 N.am  120  ASN120     -0.0877
     73  N         10.6800   29.3410   32.1640 N.am  121  LYS121     -0.1980
     74  CA        11.1350   28.5570   31.0180 C.3   121  LYS121      0.1596
     75  C         12.3080   29.2400   30.3120 C.2   121  LYS121      0.2287
     76  O         12.4440   29.1650   29.0860 O.2   121  LYS121     -0.2864
     77  CB         9.9740   28.3370   30.0290 C.3   121  LYS121      0.0298
     78  CG         8.6890   27.8290   30.7040 C.3   121  LYS121      0.0038
     79  CD         7.7120   27.1860   29.7190 C.3   121  LYS121      0.0206
     80  CE         6.4510   26.7180   30.4380 C.3   121  LYS121      0.1093
     81  NZ         5.5270   25.9470   29.5690 N.3   121  LYS121     -0.1314
     82  N         15.1530   28.3080   30.4680 N.3   123  ASP123     -0.1225
     83  CA        16.0730   27.2240   30.1300 C.3   123  ASP123      0.1805
     84  C         15.8980   26.8100   28.6680 C.2   123  ASP123      0.2597
     85  O         16.7610   26.1530   28.0910 O.2   123  ASP123     -0.2718
     86  CB        15.7780   26.0080   31.0050 C.3   123  ASP123      0.1424
     87  CG        14.3480   25.5230   30.8450 C.2   123  ASP123      0.3668
     88  OD1       13.4240   26.2880   31.1910 O.co2 123  ASP123     -0.2456
     89  OD2       14.1430   24.3850   30.3680 O.co2 123  ASP123     -0.2456
     90  N         14.7690   27.1930   28.0700 N.am  124  VAL124     -0.1980
     91  CA        14.4610   26.8330   26.6920 C.3   124  VAL124      0.1595
     92  C         15.1620   27.7050   25.6550 C.2   124  VAL124      0.2287
     93  O         15.0790   28.9330   25.6960 O.2   124  VAL124     -0.2864
     94  CB        12.9390   26.8840   26.4440 C.3   124  VAL124      0.0276
     95  CG1       12.6200   26.4770   25.0020 C.3   124  VAL124      0.0022
     96  CG2       12.2270   25.9560   27.4240 C.3   124  VAL124      0.0022
     97  N         13.5960   29.0520   36.1650 N.3   153  CYS153     -0.1221
     98  CA        13.3170   27.7500   35.5630 C.3   153  CYS153      0.1808
     99  C         12.6070   26.9900   36.6780 C.2   153  CYS153      0.2601
    100  O         13.2460   26.5290   37.6290 O.2   153  CYS153     -0.2717
    101  CB        14.6030   27.0170   35.1910 C.3   153  CYS153      0.0970
    102  SG        14.2910   25.3530   34.5430 S.3   153  CYS153     -0.0800
    103  N         11.2890   26.8840   36.5760 N.am  154  ALA154     -0.1965
    104  CA        10.5040   26.2110   37.6060 C.3   154  ALA154      0.1728
    105  C         10.8540   24.7360   37.7910 C.2   154  ALA154      0.2616
    106  O         10.6160   24.1630   38.8500 O.2   154  ALA154     -0.2715
    107  CB         9.0190   26.3670   37.3060 C.3   154  ALA154      0.0334
    108  N         11.4210   24.1160   36.7570 N.am  155  LEU155     -0.1977
    109  CA        11.7930   22.7070   36.8470 C.3   155  LEU155      0.1596
    110  C         12.9580   22.4790   37.8030 C.2   155  LEU155      0.2287
    111  O         12.9780   21.5000   38.5480 O.2   155  LEU155     -0.2864
    112  CB        12.1740   22.1640   35.4650 C.3   155  LEU155      0.0297
    113  CG        11.0560   22.0710   34.4280 C.3   155  LEU155      0.0022
    114  CD1       11.6280   21.5390   33.1230 C.3   155  LEU155      0.0001
    115  CD2        9.9490   21.1560   34.9500 C.3   155  LEU155      0.0001
@<TRIPOS>BOND
     1    95    94    1
     2    92    93    2
     3    92    91    1
     4    94    91    1
     5    94    96    1
     6    91    90    1
     7    90    84   am
     8    85    84    2
     9    15    14    2
    10    84    83    1
    11    76    75    2
    12    14    13    1
    13    14    16   am
    14    81    80    1
    15     4     3    2
    16    13    10    1
    17    79    80    1
    18    79    78    1
    19     8     6   ar
    20    77    78    1
    21    77    74    1
    22    83    82    1
    23    83    86    1
    24    75    74    1
    25    89    87   ar
    26     5     6    1
    27     5     2    1
    28     6     7   ar
    29     3     2    1
    30     3     9   am
    31    12    11    2
    32    87    86    1
    33    87    88   ar
    34    68    67    2
    35    74    73    1
    36     1     2    1
    37    10    11    1
    38    10     9    1
    39    11    17   am
    40    17    18    1
    41    67    73   am
    42    67    66    1
    43    18    21    1
    44    18    19    1
    45    20    19    2
    46    19    22   am
    47   114   113    1
    48    65    66    1
    49    66    69    1
    50    64    62   ar
    51    61    62    1
    52    61    58    1
    53    69    70    1
    54    22    23    1
    55    62    63   ar
    56    72    70   am
    57    59    60    2
    58    59    58    1
    59   113   115    1
    60   113   112    1
    61    70    71    2
    62   102   101    1
    63    58    57    1
    64    23    24    1
    65    34    33    1
    66   101    98    1
    67   112   109    1
    68    98    97    1
    69    98    99    1
    70    24    26   am
    71    24    25    2
    72    33    32    1
    73   103    99   am
    74   103   104    1
    75    26    27    1
    76    47    46    1
    77    99   100    2
    78   108   109    1
    79   108   105   am
    80   109   110    1
    81    31    32    1
    82    31    30    1
    83   107   104    1
    84   104   105    1
    85    46    48    1
    86    46    43    1
    87   105   106    2
    88   110   111    2
    89    30    27    1
    90    27    28    1
    91    40    39    1
    92    35    28   am
    93    35    36    1
    94    39    36    1
    95    39    41    1
    96    42    43    1
    97    42    37   am
    98    43    44    1
    99    28    29    2
   100    36    37    1
   101    37    38    2
   102    44    45    2
   103    54    55    1
   104    54    53    1
   105    55    56    1
   106    51    52    2
   107    51    50    1
   108    53    50    1
   109    50    49    1
