@<TRIPOS>MOLECULE
tmp/1zjpA00.pdb
 164 160 0 0 0
SMALL
GASTEIGER

@<TRIPOS>ATOM
      1  N         11.2890   54.2180   39.2600 N.3   127  ASP127     -0.1239
      2  CA        10.5680   54.3390   40.5230 C.3   127  ASP127      0.1674
      3  C          9.0820   54.4230   40.1720 C.2   127  ASP127      0.2266
      4  O          8.7130   54.9530   39.1210 O.2   127  ASP127     -0.2867
      5  CB        11.0000   55.6040   41.2770 C.3   127  ASP127      0.1410
      6  CG        12.3430   55.4430   41.9790 C.2   127  ASP127      0.3668
      7  OD1       12.7960   56.4150   42.6180 O.co2 127  ASP127     -0.2456
      8  OD2       12.9440   54.3510   41.8970 O.co2 127  ASP127     -0.2456
      9  N          6.5810   55.9860   42.1010 N.3   129  ASP129     -0.1225
     10  CA         5.9130   57.2290   42.4910 C.3   129  ASP129      0.1805
     11  C          6.2300   58.3230   41.4720 C.2   129  ASP129      0.2597
     12  O          6.7880   59.3780   41.7920 O.2   129  ASP129     -0.2718
     13  CB         6.3320   57.6360   43.9100 C.3   129  ASP129      0.1424
     14  CG         7.8320   57.7880   44.0700 C.2   129  ASP129      0.3668
     15  OD1        8.6000   57.1350   43.3320 O.co2 129  ASP129     -0.2456
     16  OD2        8.2460   58.5590   44.9620 O.co2 129  ASP129     -0.2456
     17  N          5.8280   58.0440   40.2360 N.am  130  MET130     -0.1979
     18  CA         6.0640   58.9200   39.0950 C.3   130  MET130      0.1605
     19  C          4.8980   58.8380   38.1240 C.2   130  MET130      0.2287
     20  O          4.0100   57.9980   38.2640 O.2   130  MET130     -0.2864
     21  CB         7.3040   58.4470   38.3360 C.3   130  MET130      0.0413
     22  CG         8.5530   58.2770   39.1650 C.3   130  MET130      0.0598
     23  SD         9.2550   59.8610   39.5830 S.3   130  MET130     -0.1393
     24  CE         9.8610   60.3970   37.9660 C.3   130  MET130      0.0692
     25  N         20.8000   63.2000   37.1040 N.3   149  HIS149     -0.1227
     26  CA        20.0400   63.6020   38.2850 C.3   149  HIS149      0.1737
     27  C         19.6830   65.0800   38.0930 C.2   149  HIS149      0.2438
     28  O         20.5550   65.9060   37.8270 O.2   149  HIS149     -0.2733
     29  CB        20.9110   63.4060   39.5330 C.3   149  HIS149      0.0758
     30  CG        20.1620   63.5090   40.8250 C.ar  149  HIS149      0.0818
     31  ND1       19.5260   64.6640   41.2290 N.ar  149  HIS149     -0.2268
     32  CD2       19.9620   62.6020   41.8130 C.ar  149  HIS149      0.1154
     33  CE1       18.9660   64.4650   42.4100 C.ar  149  HIS149      0.1986
     34  NE2       19.2160   63.2230   42.7860 N.ar  149  HIS149     -0.2212
     35  N         18.3940   65.4310   38.2270 N.am  150  PRO150     -0.2718
     36  CA        17.9640   66.8210   38.0480 C.3   150  PRO150      0.1535
     37  C         18.6090   67.8640   38.9490 C.2   150  PRO150      0.2599
     38  O         18.6230   69.0470   38.6090 O.2   150  PRO150     -0.2715
     39  CB        16.4480   66.7400   38.2340 C.3   150  PRO150      0.0310
     40  CG        16.2800   65.6040   39.1850 C.3   150  PRO150      0.0237
     41  CD        17.2640   64.5840   38.6510 C.3   150  PRO150      0.0939
     42  N         19.1500   67.4360   40.0830 N.am  151  SER151     -0.1936
     43  CA        19.7770   68.3710   41.0130 C.3   151  SER151      0.2055
     44  C         21.2480   68.6510   40.7400 C.2   151  SER151      0.2643
     45  O         21.8010   69.6110   41.2760 O.2   151  SER151     -0.2714
     46  CB        19.6440   67.8570   42.4480 C.3   151  SER151      0.2130
     47  OG        18.2860   67.7720   42.8290 O.3   151  SER151     -0.2179
     48  N         21.8860   67.8340   39.9070 N.am  152  PHE152     -0.1973
     49  CA        23.3080   68.0280   39.6460 C.3   152  PHE152      0.1639
     50  C         23.7380   68.1270   38.1890 C.2   152  PHE152      0.2290
     51  O         24.9350   68.1410   37.9140 O.2   152  PHE152     -0.2864
     52  CB        24.1200   66.8940   40.2830 C.3   152  PHE152      0.0560
     53  CG        23.8530   66.6910   41.7450 C.ar  152  PHE152     -0.0200
     54  CD1       22.7670   65.9330   42.1720 C.ar  152  PHE152     -0.0042
     55  CD2       24.6950   67.2510   42.6990 C.ar  152  PHE152     -0.0042
     56  CE1       22.5250   65.7360   43.5300 C.ar  152  PHE152     -0.0003
     57  CE2       24.4630   67.0610   44.0600 C.ar  152  PHE152     -0.0003
     58  CZ        23.3780   66.3020   44.4760 C.ar  152  PHE152     -0.0000
     59  N         27.1270   64.1690   45.0550 N.3   161  THR161     -0.1218
     60  CA        27.0120   63.4470   46.3150 C.3   161  THR161      0.1862
     61  C         27.4040   61.9740   46.2190 C.2   161  THR161      0.2287
     62  O         26.6730   61.0960   46.6760 O.2   161  THR161     -0.2866
     63  CB        25.5860   63.5640   46.9070 C.3   161  THR161      0.1770
     64  OG1       24.6150   63.1750   45.9270 O.3   161  THR161     -0.2211
     65  CG2       25.3160   64.9980   47.3450 C.3   161  THR161      0.0375
     66  N         26.3800   62.8090   37.6680 N.3   180  TYR180     -0.1241
     67  CA        25.7540   62.1820   38.8160 C.3   180  TYR180      0.1605
     68  C         24.4420   61.6230   38.2740 C.2   180  TYR180      0.2264
     69  O         23.5350   62.3790   37.9000 O.2   180  TYR180     -0.2867
     70  CB        25.4570   63.1760   39.9390 C.3   180  TYR180      0.0534
     71  CG        25.0380   62.4580   41.2030 C.ar  180  TYR180     -0.0201
     72  CD1       25.9860   61.8340   42.0130 C.ar  180  TYR180     -0.0009
     73  CD2       23.6910   62.3170   41.5360 C.ar  180  TYR180     -0.0009
     74  CE1       25.6050   61.0780   43.1200 C.ar  180  TYR180      0.0417
     75  CE2       23.2960   61.5610   42.6440 C.ar  180  TYR180      0.0417
     76  CZ        24.2610   60.9420   43.4280 C.ar  180  TYR180      0.1957
     77  OH        23.8820   60.1690   44.5030 O.3   180  TYR180     -0.2866
     78  N         20.8940   59.4770   38.5570 N.3   182  MET182     -0.1245
     79  CA        19.8950   59.1940   39.5800 C.3   182  MET182      0.1570
     80  C         19.4360   57.7450   39.4560 C.2   182  MET182      0.2261
     81  O         19.1890   57.2510   38.3540 O.2   182  MET182     -0.2867
     82  CB        18.7040   60.1400   39.4450 C.3   182  MET182      0.0387
     83  CG        17.6880   60.0020   40.5700 C.3   182  MET182      0.0595
     84  SD        16.5710   61.4130   40.6570 S.3   182  MET182     -0.1393
     85  CE        16.1360   61.3960   42.4010 C.3   182  MET182      0.0692
     86  N         16.7050   56.4440   39.9620 N.3   184  ALA184     -0.1245
     87  CA        15.2900   56.2960   39.6330 C.3   184  ALA184      0.1562
     88  C         14.9530   55.9720   38.1800 C.2   184  ALA184      0.2260
     89  O         13.7870   55.7390   37.8540 O.2   184  ALA184     -0.2867
     90  CB        14.5310   57.5540   40.0680 C.3   184  ALA184      0.0290
     91  N         24.2190   57.1870   49.5830 N.3   216  TRP216     -0.1241
     92  CA        22.9340   57.1480   48.9020 C.3   216  TRP216      0.1605
     93  C         22.5780   55.7510   48.4120 C.2   216  TRP216      0.2264
     94  O         21.9460   55.5660   47.3680 O.2   216  TRP216     -0.2867
     95  CB        22.8860   58.1790   47.7690 C.3   216  TRP216      0.0550
     96  CG        22.7240   59.5770   48.3100 C.ar  216  TRP216      0.0003
     97  CD1       23.6740   60.5570   48.3520 C.ar  216  TRP216      0.0946
     98  CD2       21.5660   60.1120   48.9680 C.ar  216  TRP216      0.0152
     99  NE1       23.1820   61.6680   49.0000 N.ar  216  TRP216     -0.2442
    100  CE2       21.8920   61.4210   49.3890 C.ar  216  TRP216      0.0810
    101  CE3       20.2870   59.6100   49.2470 C.ar  216  TRP216      0.0012
    102  CZ2       20.9820   62.2370   50.0740 C.ar  216  TRP216      0.0191
    103  CZ3       19.3810   60.4220   49.9300 C.ar  216  TRP216      0.0001
    104  CH2       19.7370   61.7210   50.3350 C.ar  216  TRP216      0.0015
    105  N         22.0520   53.9550   44.7040 N.3   219  GLU219     -0.1245
    106  CA        22.4230   55.0200   43.7780 C.3   219  GLU219      0.1567
    107  C         23.9200   55.2940   43.7930 C.2   219  GLU219      0.2260
    108  O         24.5170   55.6120   42.7590 O.2   219  GLU219     -0.2867
    109  CB        21.6630   56.2970   44.1260 C.3   219  GLU219      0.0388
    110  CG        21.8640   57.4140   43.1280 C.3   219  GLU219      0.1160
    111  CD        20.9840   58.6030   43.4260 C.2   219  GLU219      0.3649
    112  OE1       21.3460   59.4120   44.3090 O.co2 219  GLU219     -0.2457
    113  OE2       19.9180   58.7190   42.7880 O.co2 219  GLU219     -0.2457
    114  N         13.6440   62.7570   34.0170 N.3   240  LEU240     -0.1231
    115  CA        13.5020   62.6040   35.4640 C.3   240  LEU240      0.1693
    116  C         13.4070   63.9980   36.0530 C.2   240  LEU240      0.2592
    117  O         14.4250   64.6370   36.3080 O.2   240  LEU240     -0.2718
    118  CB        14.7100   61.8890   36.0690 C.3   240  LEU240      0.0284
    119  CG        14.6750   60.3770   36.2750 C.3   240  LEU240      0.0019
    120  CD1       15.9470   59.9720   37.0180 C.3   240  LEU240      0.0001
    121  CD2       13.4380   59.9670   37.0860 C.3   240  LEU240      0.0001
    122  N         12.1860   64.4660   36.2810 N.am  241  TRP241     -0.1962
    123  CA        12.0100   65.8140   36.8020 C.3   241  TRP241      0.1771
    124  C         10.9390   65.9190   37.8820 C.2   241  TRP241      0.2619
    125  O         10.2110   64.9680   38.1550 O.2   241  TRP241     -0.2715
    126  CB        11.6660   66.7460   35.6340 C.3   241  TRP241      0.0590
    127  CG        11.9610   68.1900   35.8860 C.ar  241  TRP241      0.0006
    128  CD1       11.0560   69.1830   36.1380 C.ar  241  TRP241      0.0946
    129  CD2       13.2540   68.8050   35.9160 C.ar  241  TRP241      0.0152
    130  NE1       11.7080   70.3800   36.3240 N.ar  241  TRP241     -0.2442
    131  CE2       13.0580   70.1750   36.1940 C.ar  241  TRP241      0.0810
    132  CE3       14.5600   68.3300   35.7360 C.ar  241  TRP241      0.0012
    133  CZ2       14.1220   71.0780   36.2970 C.ar  241  TRP241      0.0191
    134  CZ3       15.6210   69.2280   35.8390 C.ar  241  TRP241      0.0001
    135  CH2       15.3910   70.5900   36.1180 C.ar  241  TRP241      0.0015
    136  N         10.8760   67.0890   38.5110 N.am  242  ASP242     -0.1971
    137  CA         9.8840   67.3890   39.5410 C.3   242  ASP242      0.1709
    138  C          9.5830   68.8620   39.3170 C.2   242  ASP242      0.2293
    139  O         10.3440   69.7280   39.7490 O.2   242  ASP242     -0.2864
    140  CB        10.4500   67.1890   40.9490 C.3   242  ASP242      0.1436
    141  CG         9.4030   67.4260   42.0340 C.2   242  ASP242      0.3671
    142  OD1        8.5450   68.3100   41.8420 O.co2 242  ASP242     -0.2456
    143  OD2        9.4390   66.7370   43.0740 O.co2 242  ASP242     -0.2456
    144  N          9.2180   71.1040   42.5560 N.3   245  LEU245     -0.1231
    145  CA        10.4600   71.4640   43.2280 C.3   245  LEU245      0.1693
    146  C         11.4450   72.2230   42.3460 C.2   245  LEU245      0.2591
    147  O         12.2000   73.0660   42.8360 O.2   245  LEU245     -0.2718
    148  CB        11.1590   70.2100   43.7580 C.3   245  LEU245      0.0284
    149  CG        10.5610   69.5070   44.9750 C.3   245  LEU245      0.0019
    150  CD1       11.3430   68.2320   45.2520 C.3   245  LEU245      0.0001
    151  CD2       10.6080   70.4390   46.1800 C.3   245  LEU245      0.0001
    152  N         11.4310   71.9350   41.0470 N.am  246  LEU246     -0.1980
    153  CA        12.3860   72.5560   40.1350 C.3   246  LEU246      0.1596
    154  C         11.8170   73.4020   39.0020 C.2   246  LEU246      0.2287
    155  O         12.5750   73.9530   38.2020 O.2   246  LEU246     -0.2864
    156  CB        13.2910   71.4690   39.5470 C.3   246  LEU246      0.0297
    157  CG        13.9780   70.5420   40.5540 C.3   246  LEU246      0.0022
    158  CD1       14.6670   69.4070   39.8100 C.3   246  LEU246      0.0001
    159  CD2       14.9760   71.3270   41.3900 C.3   246  LEU246      0.0001
    160  N          7.9350   63.3900   39.1140 N.3   259  ALA259     -0.1245
    161  CA         7.5010   62.9680   40.4370 C.3   259  ALA259      0.1562
    162  C          6.0320   63.3310   40.6070 C.2   259  ALA259      0.2260
    163  O          5.5510   64.2880   40.0060 O.2   259  ALA259     -0.2867
    164  CB         8.3370   63.6660   41.5080 C.3   259  ALA259      0.0290
@<TRIPOS>BOND
     1   114   115    1
     2   115   116    1
     3   115   118    1
     4   126   127    1
     5   126   123    1
     6   132   134   ar
     7   132   129   ar
     8   134   135   ar
     9   127   129   ar
    10   127   128   ar
    11   129   131   ar
    12   116   122   am
    13   116   117    2
    14   118   119    1
    15   135   133   ar
    16   128   130   ar
    17   131   133   ar
    18   131   130   ar
    19   119   120    1
    20   119   121    1
    21   122   123    1
    22   123   124    1
    23    25    26    1
    24    66    67    1
    25    28    27    2
    26    89    88    2
    27   124   125    2
    28   124   136   am
    29    69    68    2
    30    51    50    2
    31    24    23    1
    32    36    35    1
    33    36    39    1
    34    36    37    1
    35    27    35   am
    36    27    26    1
    37    19    20    2
    38    19    18    1
    39    88    87    1
    40    50    49    1
    41   155   154    2
    42    35    41    1
    43    39    40    1
    44    68    67    1
    45    26    29    1
    46    21    18    1
    47    21    22    1
    48    81    80    2
    49   136   137    1
    50    78    79    1
    51    38    37    2
    52    41    40    1
    53    67    70    1
    54    37    42   am
    55   154   153    1
    56    18    17    1
    57   160   161    1
    58     4     3    2
    59    22    23    1
    60     1     2    1
    61   138   137    1
    62   138   139    2
    63    82    79    1
    64    82    83    1
    65    80    79    1
    66    29    30    1
    67   137   140    1
    68   156   153    1
    69   156   157    1
    70    87    86    1
    71    87    90    1
    72    49    48    1
    73    49    52    1
    74   158   157    1
    75    48    44   am
    76    70    71    1
    77   163   162    2
    78    42    43    1
    79   153   152    1
    80     3     2    1
    81    17    11   am
    82    52    53    1
    83   161   162    1
    84   161   164    1
    85     2     5    1
    86   157   159    1
    87    83    84    1
    88    84    85    1
    89    44    43    1
    90    44    45    2
    91    30    31   ar
    92    30    32   ar
    93   140   141    1
    94    43    46    1
    95   152   146   am
    96    71    73   ar
    97    71    72   ar
    98    31    33   ar
    99     5     6    1
   100    11    12    2
   101    11    10    1
   102    73    75   ar
   103    53    54   ar
   104    53    55   ar
   105    32    34   ar
   106   142   141   ar
   107     8     6   ar
   108     6     7   ar
   109    72    74   ar
   110   141   143   ar
   111     9    10    1
   112    54    56   ar
   113   146   147    2
   114   146   145    1
   115    33    34   ar
   116    46    47    1
   117    10    13    1
   118   144   145    1
   119    75    76   ar
   120    55    57   ar
   121   108   107    2
   122   113   111   ar
   123    74    76   ar
   124   110   111    1
   125   110   109    1
   126   145   148    1
   127    15    14   ar
   128   111   112   ar
   129    76    77    1
   130    56    58   ar
   131   148   149    1
   132   106   107    1
   133   106   109    1
   134   106   105    1
   135    13    14    1
   136    57    58   ar
   137    14    16   ar
   138   149   150    1
   139   149   151    1
   140    59    60    1
   141    64    63    1
   142    61    60    1
   143    61    62    2
   144    60    63    1
   145    63    65    1
   146    94    93    2
   147    95    96    1
   148    95    92    1
   149    96    97   ar
   150    96    98   ar
   151    97    99   ar
   152    93    92    1
   153    92    91    1
   154    98   101   ar
   155    98   100   ar
   156    99   100   ar
   157   101   103   ar
   158   100   102   ar
   159   103   104   ar
   160   102   104   ar
