@<TRIPOS>MOLECULE
tmp/1zjwB00.pdb
 181 177 0 0 0
SMALL
GASTEIGER

@<TRIPOS>ATOM
      1  N         37.5140   32.5790    6.6190 N.3    23  ARG23      -0.1231
      2  CA        38.7900   31.9110    6.4450 C.3    23  ARG23       0.1694
      3  C         39.1860   31.0050    7.6000 C.2    23  ARG23       0.2592
      4  O         38.7650   31.2000    8.7440 O.2    23  ARG23      -0.2718
      5  CB        39.8980   32.9390    6.1480 C.3    23  ARG23       0.0321
      6  CG        40.7840   33.4000    7.3000 C.3    23  ARG23       0.0489
      7  CD        40.1020   34.3700    8.2470 C.3    23  ARG23       0.2205
      8  NE        39.4550   33.6240    9.3070 N.pl3  23  ARG23      -0.0865
      9  CZ        39.7140   33.7590   10.5990 C.cat  23  ARG23       0.5346
     10  NH1       40.6090   34.6300   11.0340 N.pl3  23  ARG23       0.1354
     11  NH2       39.0860   32.9760   11.4500 N.pl3  23  ARG23       0.1354
     12  N         39.9460   29.9630    7.2690 N.am   24  PHE24      -0.1963
     13  CA        40.4800   29.0470    8.2680 C.3    24  PHE24       0.1756
     14  C         41.9840   29.3380    8.1960 C.2    24  PHE24       0.2461
     15  O         42.6390   28.9800    7.2210 O.2    24  PHE24      -0.2730
     16  CB        40.2000   27.5850    7.9130 C.3    24  PHE24       0.0574
     17  CG        40.8540   26.6130    8.8620 C.ar   24  PHE24      -0.0200
     18  CD1       40.6310   26.7130   10.2290 C.ar   24  PHE24      -0.0042
     19  CD2       41.7200   25.6320    8.3940 C.ar   24  PHE24      -0.0042
     20  CE1       41.2660   25.8550   11.1260 C.ar   24  PHE24      -0.0003
     21  CE2       42.3600   24.7700    9.2710 C.ar   24  PHE24      -0.0003
     22  CZ        42.1370   24.8770   10.6460 C.ar   24  PHE24      -0.0000
     23  N         42.5430   29.9800    9.2350 N.am   25  PRO25      -0.2716
     24  CA        43.9620   30.3520    9.3050 C.3    25  PRO25       0.1521
     25  C         44.8830   29.6250   10.2880 C.2    25  PRO25       0.2440
     26  O         45.4570   30.2580   11.1790 O.2    25  PRO25      -0.2731
     27  CB        43.8720   31.8140    9.6750 C.3    25  PRO25       0.0310
     28  CG        42.8300   31.7400   10.8260 C.3    25  PRO25       0.0237
     29  CD        41.7950   30.6580   10.3150 C.3    25  PRO25       0.0939
     30  N         45.0710   28.3110   10.1330 N.am   26  PRO26      -0.2716
     31  CA        45.9520   27.5930   11.0650 C.3    26  PRO26       0.1536
     32  C         47.4360   27.9030   10.8720 C.2    26  PRO26       0.2598
     33  O         47.8750   28.1750    9.7620 O.2    26  PRO26      -0.2715
     34  CB        45.6660   26.1480   10.7300 C.3    26  PRO26       0.0310
     35  CG        45.5550   26.2150    9.2320 C.3    26  PRO26       0.0237
     36  CD        44.6390   27.4240    9.0400 C.3    26  PRO26       0.0939
     37  N         48.2090   27.8560   11.9560 N.am   27  GLU27      -0.1978
     38  CA        49.6570   28.0760   11.8570 C.3    27  GLU27       0.1602
     39  C         50.2780   26.7140   11.5580 C.2    27  GLU27       0.2287
     40  O         49.8960   25.7250   12.1530 O.2    27  GLU27      -0.2864
     41  CB        50.2520   28.6050   13.1670 C.3    27  GLU27       0.0415
     42  CG        51.6210   29.2500   12.9500 C.3    27  GLU27       0.1163
     43  CD        52.5120   29.2800   14.1820 C.2    27  GLU27       0.3649
     44  OE1       51.9930   29.2360   15.3210 O.co2  27  GLU27      -0.2457
     45  OE2       53.7430   29.3670   14.0030 O.co2  27  GLU27      -0.2457
     46  N         43.7820   19.2290   15.0000 N.3    33  HIS33      -0.1241
     47  CA        43.0560   18.3840   15.9410 C.3    33  HIS33       0.1621
     48  C         41.5550   18.6340   15.8210 C.2    33  HIS33       0.2264
     49  O         41.1250   19.5200   15.0870 O.2    33  HIS33      -0.2867
     50  CB        43.5150   18.6170   17.3770 C.3    33  HIS33       0.0745
     51  CG        43.5200   20.0490   17.7920 C.ar   33  HIS33       0.0817
     52  ND1       42.4200   20.8670   17.6680 N.ar   33  HIS33      -0.2268
     53  CD2       44.4910   20.8090   18.3470 C.ar   33  HIS33       0.1154
     54  CE1       42.7130   22.0720   18.1270 C.ar   33  HIS33       0.1986
     55  NE2       43.9640   22.0630   18.5450 N.ar   33  HIS33      -0.2212
     56  N         39.6350   20.1320   17.5050 N.3    35  GLY35      -0.1210
     57  CA        39.2780   21.5130   17.7710 C.3    35  GLY35       0.1956
     58  C         39.3070   22.3200   16.4850 C.2    35  GLY35       0.2611
     59  O         38.4460   23.1750   16.2480 O.2    35  GLY35      -0.2717
     60  N         40.3050   22.0540   15.6440 N.am   36  HIS36      -0.1975
     61  CA        40.4180   22.7440   14.3670 C.3    36  HIS36       0.1656
     62  C         39.2100   22.3660   13.5070 C.2    36  HIS36       0.2291
     63  O         38.7000   23.1800   12.7360 O.2    36  HIS36      -0.2864
     64  CB        41.7150   22.3540   13.6650 C.3    36  HIS36       0.0771
     65  CG        42.9460   22.8140   14.3790 C.ar   36  HIS36       0.0820
     66  ND1       43.8320   21.9430   14.9770 N.ar   36  HIS36      -0.2267
     67  CD2       43.4220   24.0590   14.6190 C.ar   36  HIS36       0.1154
     68  CE1       44.7990   22.6320   15.5560 C.ar   36  HIS36       0.1986
     69  NE2       44.5730   23.9180   15.3550 N.ar   36  HIS36      -0.2212
     70  N         36.2230   21.9230   14.4770 N.3    38  LYS38      -0.1231
     71  CA        35.0920   22.7610   14.8570 C.3    38  LYS38       0.1693
     72  C         35.1820   24.0840   14.0880 C.2    38  LYS38       0.2592
     73  O         34.1840   24.6060   13.5830 O.2    38  LYS38      -0.2718
     74  CB        35.1100   23.0300   16.3630 C.3    38  LYS38       0.0285
     75  CG        34.0940   24.0680   16.8090 C.3    38  LYS38       0.0035
     76  CD        34.1080   24.2610   18.3130 C.3    38  LYS38       0.0206
     77  CE        33.0160   25.2220   18.7670 C.3    38  LYS38       0.1093
     78  NZ        32.9620   25.3100   20.2470 N.3    38  LYS38      -0.1314
     79  N         36.3960   24.6100   13.9920 N.am   39  SER39      -0.1952
     80  CA        36.6370   25.8590   13.2900 C.3    39  SER39       0.1924
     81  C         36.4810   25.6780   11.7830 C.2    39  SER39       0.2314
     82  O         35.9880   26.5610   11.0950 O.2    39  SER39      -0.2863
     83  CB        38.0410   26.3710   13.6280 C.3    39  SER39       0.2116
     84  OG        38.3510   27.5440   12.9040 O.3    39  SER39      -0.2180
     85  N         48.9950   30.7930    8.5590 N.3    59  ASP59      -0.1239
     86  CA        49.5160   31.9520    9.2820 C.3    59  ASP59       0.1674
     87  C         50.9640   31.6450    9.6560 C.2    59  ASP59       0.2266
     88  O         51.2660   31.3510   10.8050 O.2    59  ASP59      -0.2867
     89  CB        48.7010   32.1960   10.5430 C.3    59  ASP59       0.1410
     90  CG        48.2990   33.6480   10.6960 C.2    59  ASP59       0.3668
     91  OD1       49.0640   34.5210   10.2120 O.co2  59  ASP59      -0.2456
     92  OD2       47.2300   33.9220   11.3080 O.co2  59  ASP59      -0.2456
     93  N         47.5900   39.2870   10.9230 N.3   208  HIS208     -0.1241
     94  CA        46.2480   38.7680   10.7430 C.3   208  HIS208      0.1621
     95  C         45.1730   39.7140   10.2160 C.2   208  HIS208      0.2264
     96  O         44.4440   39.3570    9.2860 O.2   208  HIS208     -0.2867
     97  CB        45.7550   38.1350   12.0430 C.3   208  HIS208      0.0745
     98  CG        44.6810   37.1240   11.8300 C.ar  208  HIS208      0.0817
     99  ND1       44.9550   35.8000   11.5590 N.ar  208  HIS208     -0.2268
    100  CD2       43.3350   37.2580   11.7430 C.ar  208  HIS208      0.1154
    101  CE1       43.8250   35.1630   11.3110 C.ar  208  HIS208      0.1986
    102  NE2       42.8290   36.0260   11.4150 N.ar  208  HIS208     -0.2212
    103  N         36.4820   34.7860   11.9750 N.3   221  LEU221     -0.1231
    104  CA        36.0670   33.9910   13.1290 C.3   221  LEU221      0.1693
    105  C         37.1920   33.2880   13.8970 C.2   221  LEU221      0.2592
    106  O         37.8640   32.4140   13.3700 O.2   221  LEU221     -0.2718
    107  CB        35.0250   32.9640   12.6770 C.3   221  LEU221      0.0284
    108  CG        33.9250   33.5010   11.7390 C.3   221  LEU221      0.0019
    109  CD1       32.9650   32.3760   11.4150 C.3   221  LEU221      0.0001
    110  CD2       33.1740   34.6720   12.3780 C.3   221  LEU221      0.0001
    111  N         37.3630   33.6500   15.1620 N.am  222  CYS222     -0.1956
    112  CA        38.4100   33.0770   15.9970 C.3   222  CYS222      0.1843
    113  C         37.8740   32.6850   17.3790 C.2   222  CYS222      0.2626
    114  O         36.6980   32.8730   17.6740 O.2   222  CYS222     -0.2714
    115  CB        39.5310   34.0940   16.1820 C.3   222  CYS222      0.0997
    116  SG        39.0030   35.5390   17.1250 S.3   222  CYS222     -0.0797
    117  N         38.7520   32.1530   18.2290 N.am  223  THR223     -0.1950
    118  CA        38.3430   31.7490   19.5590 C.3   223  THR223      0.1897
    119  C         38.4250   32.9000   20.5510 C.2   223  THR223      0.2313
    120  O         38.9590   33.9710   20.2450 O.2   223  THR223     -0.2863
    121  CB        39.1530   30.5300   20.0530 C.3   223  THR223      0.1794
    122  OG1       40.5430   30.7420   19.8130 O.3   223  THR223     -0.2208
    123  CG2       38.7280   29.2710   19.2940 C.3   223  THR223      0.0378
    124  N         41.3340   35.7560   21.8540 N.3   226  PHE226     -0.1241
    125  CA        41.6800   36.9060   21.0150 C.3   226  PHE226      0.1605
    126  C         40.7130   38.0820   21.1820 C.2   226  PHE226      0.2264
    127  O         40.8130   39.0680   20.4540 O.2   226  PHE226     -0.2867
    128  CB        41.7170   36.4840   19.5380 C.3   226  PHE226      0.0534
    129  CG        42.7640   35.4400   19.2300 C.ar  226  PHE226     -0.0203
    130  CD1       44.1130   35.7910   19.1270 C.ar  226  PHE226     -0.0042
    131  CD2       42.4030   34.0890   19.0730 C.ar  226  PHE226     -0.0042
    132  CE1       45.0990   34.8140   18.8740 C.ar  226  PHE226     -0.0003
    133  CE2       43.3820   33.0970   18.8160 C.ar  226  PHE226     -0.0003
    134  CZ        44.7330   33.4620   18.7160 C.ar  226  PHE226     -0.0000
    135  N         34.3070   32.7940   19.3030 N.3   251  PHE251     -0.1241
    136  CA        33.4770   31.7410   19.8650 C.3   251  PHE251      0.1605
    137  C         34.3650   30.8960   20.7650 C.2   251  PHE251      0.2264
    138  O         35.5840   30.9450   20.6410 O.2   251  PHE251     -0.2867
    139  CB        32.8580   30.8890   18.7640 C.3   251  PHE251      0.0534
    140  CG        33.8620   30.1890   17.9080 C.ar  251  PHE251     -0.0203
    141  CD1       34.4240   30.8290   16.8140 C.ar  251  PHE251     -0.0042
    142  CD2       34.2630   28.8950   18.2160 C.ar  251  PHE251     -0.0042
    143  CE1       35.3720   30.1940   16.0360 C.ar  251  PHE251     -0.0003
    144  CE2       35.2070   28.2540   17.4460 C.ar  251  PHE251     -0.0003
    145  CZ        35.7670   28.9000   16.3510 C.ar  251  PHE251     -0.0000
    146  N         36.3980   27.8000   22.3530 N.3   253  ARG253     -0.1231
    147  CA        37.1090   26.6800   21.7730 C.3   253  ARG253      0.1694
    148  C         36.6060   25.3790   22.3460 C.2   253  ARG253      0.2591
    149  O         35.9860   25.3450   23.4110 O.2   253  ARG253     -0.2718
    150  CB        38.6210   26.7980   22.0050 C.3   253  ARG253      0.0321
    151  CG        39.0770   26.6690   23.4490 C.3   253  ARG253      0.0489
    152  CD        40.5550   27.0060   23.5540 C.3   253  ARG253      0.2205
    153  NE        41.3680   25.9910   22.8920 N.pl3 253  ARG253     -0.0865
    154  CZ        42.4270   26.2570   22.1300 C.cat 253  ARG253      0.5346
    155  NH1       42.7990   27.5170   21.9320 N.pl3 253  ARG253      0.1354
    156  NH2       43.1140   25.2650   21.5730 N.pl3 253  ARG253      0.1354
    157  N         36.8710   24.3080   21.6120 N.am  254  LEU254     -0.1980
    158  CA        36.4700   22.9790   22.0090 C.3   254  LEU254      0.1596
    159  C         37.4560   22.3470   22.9860 C.2   254  LEU254      0.2287
    160  O         38.6630   22.5210   22.8680 O.2   254  LEU254     -0.2864
    161  CB        36.3640   22.0820   20.7760 C.3   254  LEU254      0.0297
    162  CG        36.4160   20.5810   21.0750 C.3   254  LEU254      0.0022
    163  CD1       35.1220   20.1810   21.7350 C.3   254  LEU254      0.0001
    164  CD2       36.6400   19.7790   19.7960 C.3   254  LEU254      0.0001
    165  N         44.0540   19.3360   23.9840 N.3   261  MET261     -0.1245
    166  CA        43.8020   19.9170   22.6720 C.3   261  MET261      0.1570
    167  C         44.8190   21.0040   22.3550 C.2   261  MET261      0.2261
    168  O         44.5760   21.8670   21.5050 O.2   261  MET261     -0.2867
    169  CB        42.3980   20.5150   22.6570 C.3   261  MET261      0.0387
    170  CG        41.7240   20.5100   21.3110 C.3   261  MET261      0.0595
    171  SD        41.3530   18.8370   20.8240 S.3   261  MET261     -0.1393
    172  CE        39.9190   18.5260   21.8380 C.3   261  MET261      0.0692
    173  N         48.5200   22.1690   20.9660 N.3   263  LYS263     -0.1245
    174  CA        49.5750   21.7210   20.0600 C.3   263  LYS263      0.1561
    175  C         50.9130   21.5340   20.7550 C.2   263  LYS263      0.2260
    176  O         51.6990   20.6710   20.3690 O.2   263  LYS263     -0.2867
    177  CB        49.7410   22.6790   18.8800 C.3   263  LYS263      0.0271
    178  CG        48.7180   22.4760   17.7700 C.3   263  LYS263      0.0035
    179  CD        49.3400   22.7010   16.3930 C.3   263  LYS263      0.0206
    180  CE        48.4540   23.5720   15.5110 C.3   263  LYS263      0.1093
    181  NZ        48.3530   24.9610   16.0480 N.3   263  LYS263     -0.1314
@<TRIPOS>BOND
     1     5     2    1
     2     5     6    1
     3     2     1    1
     4     2     3    1
     5    15    14    2
     6    12     3   am
     7    12    13    1
     8     6     7    1
     9     3     4    2
    10    16    13    1
    11    16    17    1
    12    14    13    1
    13    14    23   am
    14     7     8    1
    15    19    17   ar
    16    19    21   ar
    17    85    86    1
    18    17    18   ar
    19    36    35    1
    20    36    30    1
    21    35    34    1
    22    23    24    1
    23    23    29    1
    24    21    22   ar
    25    86    87    1
    26    86    89    1
    27    96    95    2
    28    24    27    1
    29    24    25    1
    30     8     9    2
    31    87    88    2
    32    27    28    1
    33    33    32    2
    34    30    25   am
    35    30    31    1
    36    91    90   ar
    37    95    94    1
    38    18    20   ar
    39    25    26    2
    40    29    28    1
    41    89    90    1
    42     9    10    1
    43     9    11    1
    44    22    20   ar
    45    90    92   ar
    46    34    31    1
    47    94    93    1
    48    94    97    1
    49    32    31    1
    50    32    37   am
    51    82    81    2
    52   101   102   ar
    53   101    99   ar
    54   109   108    1
    55   102   100   ar
    56    39    38    1
    57    39    40    2
    58    99    98   ar
    59   108   110    1
    60   108   107    1
    61   100    98   ar
    62    81    80    1
    63    98    97    1
    64    38    37    1
    65    38    41    1
    66   103   104    1
    67   107   104    1
    68    63    62    2
    69    84    83    1
    70    42    41    1
    71    42    43    1
    72   104   105    1
    73    80    83    1
    74    80    79    1
    75   106   105    2
    76    62    61    1
    77    73    72    2
    78    64    61    1
    79    64    65    1
    80   105   111   am
    81    79    72   am
    82    45    43   ar
    83    72    71    1
    84    43    44   ar
    85    61    60    1
    86    65    67   ar
    87    65    66   ar
    88    70    71    1
    89    67    69   ar
    90    71    74    1
    91    66    68   ar
    92    46    47    1
    93    49    48    2
    94   111   112    1
    95    69    68   ar
    96   180   181    1
    97   180   179    1
    98    60    58   am
    99    48    47    1
   100    47    50    1
   101   112   115    1
   102   112   113    1
   103   143   145   ar
   104   143   141   ar
   105   115   116    1
   106    59    58    2
   107   145   144   ar
   108    74    75    1
   109   179   178    1
   110    58    57    1
   111    75    76    1
   112   141   140   ar
   113    50    51    1
   114   113   114    2
   115   113   117   am
   116   144   142   ar
   117    56    57    1
   118    52    51   ar
   119    52    54   ar
   120   178   177    1
   121    51    53   ar
   122   140   142   ar
   123   140   139    1
   124    54    55   ar
   125   117   118    1
   126    76    77    1
   127    53    55   ar
   128   134   133   ar
   129   134   132   ar
   130   139   136    1
   131    77    78    1
   132   133   131   ar
   133   132   130   ar
   134   177   174    1
   135   131   129   ar
   136   130   129   ar
   137   129   128    1
   138   123   121    1
   139   135   136    1
   140   128   125    1
   141   118   121    1
   142   118   119    1
   143   164   162    1
   144   122   121    1
   145   136   137    1
   146   174   175    1
   147   174   173    1
   148   120   119    2
   149   176   175    2
   150   127   126    2
   151   138   137    2
   152   161   162    1
   153   161   158    1
   154   171   170    1
   155   171   172    1
   156   125   126    1
   157   125   124    1
   158   162   163    1
   159   170   169    1
   160   168   167    2
   161   156   154    1
   162   157   158    1
   163   157   148   am
   164   147   150    1
   165   147   148    1
   166   147   146    1
   167   155   154    1
   168   150   151    1
   169   158   159    1
   170   154   153    2
   171   148   149    2
   172   167   166    1
   173   169   166    1
   174   166   165    1
   175   160   159    2
   176   153   152    1
   177   151   152    1
