@<TRIPOS>MOLECULE
tmp/1zk4A01.pdb
 84 78 0 0 0
SMALL
GASTEIGER

@<TRIPOS>ATOM
      1  N         11.8680    7.6410   20.0890 N.3    93  ALA93      -0.1245
      2  CA        12.3550    6.4360   19.4550 C.3    93  ALA93       0.1562
      3  C         13.2360    5.6740   20.4110 C.2    93  ALA93       0.2260
      4  O         13.9060    6.2420   21.2800 O.2    93  ALA93      -0.2867
      5  CB        13.1180    6.7730   18.2000 C.3    93  ALA93       0.0290
      6  N         16.1270    2.6300   19.9520 N.3    95  ASN95      -0.1240
      7  CA        16.9480    2.0430   18.9080 C.3    95  ASN95       0.1653
      8  C         17.2590    0.5970   19.2290 C.2    95  ASN95       0.2266
      9  O         18.3930    0.2330   19.5630 O.2    95  ASN95      -0.2867
     10  CB        18.2090    2.8720   18.7130 C.3    95  ASN95       0.1155
     11  CG        17.8950    4.2670   18.2290 C.2    95  ASN95       0.2627
     12  OD1       17.3730    4.4400   17.1300 O.2    95  ASN95      -0.2716
     13  ND2       18.1650    5.2700   19.0630 N.am   95  ASN95      -0.0877
     14  N          5.2650    8.7820   10.0340 N.3   142  SER142     -0.1202
     15  CA         6.6090    8.3400    9.6310 C.3   142  SER142      0.2020
     16  C          6.6950    7.4640    8.3850 C.2   142  SER142      0.2619
     17  O          5.8020    6.6740    8.1390 O.2   142  SER142     -0.2717
     18  CB         7.2320    7.5470   10.7880 C.3   142  SER142      0.2103
     19  OG         8.6130    7.3210   10.5760 O.3   142  SER142     -0.2182
     20  N          7.8180    7.4940    7.6620 N.am  143  ILE143     -0.1965
     21  CA         8.0960    6.4050    6.7170 C.3   143  ILE143      0.1727
     22  C          8.1090    5.0500    7.4070 C.2   143  ILE143      0.2616
     23  O          7.8380    4.0460    6.7830 O.2   143  ILE143     -0.2715
     24  CB         9.4100    6.6020    5.9030 C.3   143  ILE143      0.0290
     25  CG1       10.6420    6.7410    6.8150 C.3   143  ILE143      0.0022
     26  CG2        9.2580    7.7740    4.9600 C.3   143  ILE143      0.0023
     27  CD1       11.9890    6.5880    6.1080 C.3   143  ILE143      0.0001
     28  N          8.4270    5.0270    8.7040 N.am  144  GLU144     -0.1977
     29  CA         8.3860    3.8240    9.5220 C.3   144  GLU144      0.1602
     30  C          6.9730    3.3550    9.8530 C.2   144  GLU144      0.2287
     31  O          6.8040    2.3320   10.5190 O.2   144  GLU144     -0.2864
     32  CB         9.1580    4.0450   10.8110 C.3   144  GLU144      0.0415
     33  CG        10.5900    4.5170   10.6260 C.3   144  GLU144      0.1163
     34  CD        11.4410    3.6440    9.7660 C.2   144  GLU144      0.3649
     35  OE1       11.2370    2.4200    9.7080 O.co2 144  GLU144     -0.2457
     36  OE2       12.3930    4.2210    9.1790 O.co2 144  GLU144     -0.2457
     37  N         14.1580   -0.5140   14.8400 N.3   152  LEU152     -0.1245
     38  CA        13.1220    0.4070   15.3070 C.3   152  LEU152      0.1561
     39  C         11.8230   -0.3400   15.5770 C.2   152  LEU152      0.2260
     40  O         10.7470    0.1110   15.1940 O.2   152  LEU152     -0.2867
     41  CB        12.8830    1.5300   14.2890 C.3   152  LEU152      0.0270
     42  CG        14.0100    2.5360   14.1060 C.3   152  LEU152      0.0019
     43  CD1       13.7010    3.4440   12.9290 C.3   152  LEU152      0.0001
     44  CD2       14.2240    3.3470   15.3840 C.3   152  LEU152      0.0001
     45  N          9.0230    1.5030   17.5540 N.3   155  TYR155     -0.1241
     46  CA         8.6910    2.6750   16.7660 C.3   155  TYR155      0.1605
     47  C          7.8220    2.3010   15.5690 C.2   155  TYR155      0.2264
     48  O          6.7750    2.9240   15.3200 O.2   155  TYR155     -0.2867
     49  CB         9.9890    3.3360   16.3030 C.3   155  TYR155      0.0534
     50  CG         9.8300    4.7310   15.7460 C.ar  155  TYR155     -0.0201
     51  CD1        9.7270    5.8260   16.5760 C.ar  155  TYR155     -0.0009
     52  CD2        9.7940    4.9760   14.3700 C.ar  155  TYR155     -0.0009
     53  CE1        9.6150    7.1110   16.0890 C.ar  155  TYR155      0.0417
     54  CE2        9.6910    6.2690   13.8740 C.ar  155  TYR155      0.0417
     55  CZ         9.5820    7.3300   14.7350 C.ar  155  TYR155      0.1957
     56  OH         9.4630    8.5990   14.2420 O.3   155  TYR155     -0.2866
     57  N         13.8460   11.0980    6.4860 N.3   189  TYR189     -0.1241
     58  CA        14.8380   11.6290    7.3990 C.3   189  TYR189      0.1605
     59  C         14.9580   13.1370    7.1980 C.2   189  TYR189      0.2264
     60  O         15.0520   13.6210    6.0700 O.2   189  TYR189     -0.2867
     61  CB        16.1750   10.9030    7.2070 C.3   189  TYR189      0.0534
     62  CG        16.1460    9.5520    7.8290 C.ar  189  TYR189     -0.0201
     63  CD1       15.8400    8.4240    7.0830 C.ar  189  TYR189     -0.0009
     64  CD2       16.3520    9.4090    9.1850 C.ar  189  TYR189     -0.0009
     65  CE1       15.7700    7.1660    7.6780 C.ar  189  TYR189      0.0417
     66  CE2       16.2930    8.1770    9.7820 C.ar  189  TYR189      0.0417
     67  CZ        16.0080    7.0510    9.0300 C.ar  189  TYR189      0.1957
     68  OH        15.9540    5.8210    9.6300 O.3   189  TYR189     -0.2866
     69  N         24.3950   13.5960   16.3530 N.3   198  LEU198     -0.1245
     70  CA        24.7610   12.1880   16.1950 C.3   198  LEU198      0.1561
     71  C         25.7430   12.0470   15.0360 C.2   198  LEU198      0.2260
     72  O         25.3320   12.0360   13.8750 O.2   198  LEU198     -0.2867
     73  CB        23.5230   11.3330   15.9330 C.3   198  LEU198      0.0270
     74  CG        22.4930   11.3480   17.0620 C.3   198  LEU198      0.0019
     75  CD1       21.1840   10.7590   16.5840 C.3   198  LEU198      0.0001
     76  CD2       23.0110   10.5930   18.2800 C.3   198  LEU198      0.0001
     77  N         22.1110    8.5310    6.4520 N.3   205  MET205     -0.1245
     78  CA        20.7400    8.7590    5.9900 C.3   205  MET205      0.1570
     79  C         20.7020    9.1870    4.5190 C.2   205  MET205      0.2261
     80  O         19.7000    8.9640    3.8320 O.2   205  MET205     -0.2867
     81  CB        20.0590    9.8480    6.8280 C.3   205  MET205      0.0387
     82  CG        19.7570    9.4980    8.2690 C.3   205  MET205      0.0595
     83  SD        19.4160   11.0080    9.2430 S.3   205  MET205     -0.1393
     84  CE        18.9690   10.2660   10.8290 C.3   205  MET205      0.0692
@<TRIPOS>BOND
     1    80    79    2
     2    79    78    1
     3    26    24    1
     4    24    21    1
     5    24    25    1
     6    78    77    1
     7    78    81    1
     8    60    59    2
     9    27    25    1
    10    57    58    1
    11    21    22    1
    12    21    20    1
    13    23    22    2
    14    81    82    1
    15    63    65   ar
    16    63    62   ar
    17    59    58    1
    18    61    58    1
    19    61    62    1
    20    22    28   am
    21    20    16   am
    22    65    67   ar
    23    62    64   ar
    24    17    16    2
    25    82    83    1
    26    16    15    1
    27    28    29    1
    28    67    68    1
    29    67    66   ar
    30    36    34   ar
    31    64    66   ar
    32    83    84    1
    33    29    30    1
    34    29    32    1
    35    15    14    1
    36    15    18    1
    37    35    34   ar
    38    34    33    1
    39    30    31    2
    40    19    18    1
    41    33    32    1
    42    43    42    1
    43    54    52   ar
    44    54    55   ar
    45    72    71    2
    46    42    41    1
    47    42    44    1
    48    56    55    1
    49    41    38    1
    50    52    50   ar
    51    55    53   ar
    52    37    38    1
    53    71    70    1
    54    40    39    2
    55    38    39    1
    56    48    47    2
    57    47    46    1
    58    50    49    1
    59    50    51   ar
    60    73    70    1
    61    73    74    1
    62    53    51   ar
    63    70    69    1
    64    49    46    1
    65    75    74    1
    66    46    45    1
    67    74    76    1
    68    12    11    2
    69     5     2    1
    70    11    10    1
    71    11    13   am
    72    10     7    1
    73     7     8    1
    74     7     6    1
    75     8     9    2
    76     2     1    1
    77     2     3    1
    78     3     4    2
