@<TRIPOS>MOLECULE
tmp/1zkfB01.pdb
 154 149 0 0 0
SMALL
GASTEIGER

@<TRIPOS>ATOM
      1  N        -11.6820   67.8100   46.1250 N.3    54  ARG54      -0.1245
      2  CA       -11.1210   67.9840   47.4550 C.3    54  ARG54       0.1563
      3  C        -10.1350   69.1400   47.5360 C.2    54  ARG54       0.2260
      4  O         -9.0450   69.0770   46.9690 O.2    54  ARG54      -0.2867
      5  CB       -10.4400   66.6820   47.8740 C.3    54  ARG54       0.0307
      6  CG        -9.9370   66.6460   49.2870 C.3    54  ARG54       0.0489
      7  CD        -9.0170   65.4480   49.4610 C.3    54  ARG54       0.2205
      8  NE        -8.5850   65.2770   50.8440 N.pl3  54  ARG54      -0.0865
      9  CZ        -7.4630   64.6680   51.2050 C.cat  54  ARG54       0.5346
     10  NH1       -6.6470   64.1650   50.2830 N.pl3  54  ARG54       0.1354
     11  NH2       -7.1530   64.5690   52.4900 N.pl3  54  ARG54       0.1354
     12  N         -8.3190   71.6860   50.3950 N.3    56  ILE56      -0.1231
     13  CA        -8.0570   72.0010   51.7880 C.3    56  ILE56       0.1678
     14  C         -7.0940   73.1790   51.8540 C.2    56  ILE56       0.2434
     15  O         -5.8890   73.0250   51.6470 O.2    56  ILE56      -0.2733
     16  CB        -7.4590   70.7900   52.5170 C.3    56  ILE56       0.0265
     17  CG1       -8.4430   69.6210   52.4440 C.3    56  ILE56       0.0019
     18  CG2       -7.1650   71.1460   53.9630 C.3    56  ILE56       0.0020
     19  CD1       -8.0000   68.3860   53.1980 C.3    56  ILE56       0.0001
     20  N         -7.6220   74.3770   52.1530 N.am   57  PRO57      -0.2729
     21  CA        -6.8510   75.6210   52.2500 C.3    57  PRO57       0.1401
     22  C         -5.5500   75.5130   53.0300 C.2    57  PRO57       0.2269
     23  O         -5.5140   74.9650   54.1280 O.2    57  PRO57      -0.2865
     24  CB        -7.8410   76.5880   52.9020 C.3    57  PRO57       0.0296
     25  CG        -9.1590   76.1110   52.3820 C.3    57  PRO57       0.0237
     26  CD        -9.0300   74.6090   52.5340 C.3    57  PRO57       0.0939
     27  N         -3.1420   73.7670   52.2350 N.3    59  PHE59      -0.1227
     28  CA        -2.6100   72.4210   52.0590 C.3    59  PHE59       0.1736
     29  C         -2.4650   72.0550   50.5750 C.2    59  PHE59       0.2595
     30  O         -1.3590   72.0820   50.0310 O.2    59  PHE59      -0.2718
     31  CB        -3.5050   71.4150   52.7860 C.3    59  PHE59       0.0547
     32  CG        -3.0390   69.9910   52.6750 C.ar   59  PHE59      -0.0202
     33  CD1       -1.7040   69.6950   52.4020 C.ar   59  PHE59      -0.0042
     34  CD2       -3.9340   68.9410   52.8570 C.ar   59  PHE59      -0.0042
     35  CE1       -1.2680   68.3720   52.3100 C.ar   59  PHE59      -0.0003
     36  CE2       -3.5080   67.6070   52.7670 C.ar   59  PHE59      -0.0003
     37  CZ        -2.1740   67.3240   52.4930 C.ar   59  PHE59      -0.0000
     38  N         -3.5750   71.7250   49.9190 N.am   60  MET60      -0.1979
     39  CA        -3.5230   71.3630   48.5090 C.3    60  MET60       0.1605
     40  C         -4.8970   71.2720   47.8610 C.2    60  MET60       0.2287
     41  O         -5.9270   71.2640   48.5460 O.2    60  MET60      -0.2864
     42  CB        -2.7780   70.0250   48.3310 C.3    60  MET60       0.0413
     43  CG        -3.3850   68.8000   49.0570 C.3    60  MET60       0.0598
     44  SD        -4.8200   68.0250   48.2190 S.3    60  MET60      -0.1393
     45  CE        -6.0890   68.1340   49.5050 C.3    60  MET60       0.0692
     46  N         -6.9720   68.8820   45.2330 N.3    62  GLN62      -0.1245
     47  CA        -6.9390   67.5700   44.5950 C.3    62  GLN62       0.1566
     48  C         -8.0190   67.4070   43.5330 C.2    62  GLN62       0.2260
     49  O         -9.1610   67.8210   43.7300 O.2    62  GLN62      -0.2867
     50  CB        -7.0990   66.4740   45.6490 C.3    62  GLN62       0.0367
     51  CG        -6.8600   65.0680   45.1290 C.3    62  GLN62       0.0905
     52  CD        -6.9900   64.0190   46.2210 C.2    62  GLN62       0.2608
     53  OE1       -6.6640   64.2730   47.3780 O.2    62  GLN62      -0.2717
     54  NE2       -7.4520   62.8310   45.8540 N.am   62  GLN62      -0.0878
     55  N        -15.2940   61.5550   42.8870 N.3    70  ASN70      -0.1225
     56  CA       -15.3100   61.6650   44.3380 C.3    70  ASN70       0.1785
     57  C        -14.0420   61.1840   45.0300 C.2    70  ASN70       0.2598
     58  O        -13.9890   61.1160   46.2550 O.2    70  ASN70      -0.2718
     59  CB       -16.5150   60.9190   44.9090 C.3    70  ASN70       0.1169
     60  CG       -16.5670   59.4720   44.4750 C.2    70  ASN70       0.2627
     61  OD1      -15.5390   58.7980   44.3580 O.2    70  ASN70      -0.2716
     62  ND2      -17.7740   58.9770   44.2500 N.am   70  ASN70      -0.0877
     63  N        -13.0240   60.8430   44.2540 N.am   71  GLY71      -0.1942
     64  CA       -11.7780   60.4010   44.8480 C.3    71  GLY71       0.2014
     65  C        -11.5930   58.9010   44.9180 C.2    71  GLY71       0.2639
     66  O        -10.6230   58.4290   45.5060 O.2    71  GLY71      -0.2714
     67  N        -12.5180   58.1480   44.3300 N.am   72  THR72      -0.1950
     68  CA       -12.4220   56.6910   44.3330 C.3    72  THR72       0.1897
     69  C        -12.1230   56.1700   42.9280 C.2    72  THR72       0.2313
     70  O        -11.7290   55.0150   42.7540 O.2    72  THR72      -0.2863
     71  CB       -13.7330   56.0280   44.8290 C.3    72  THR72       0.1794
     72  OG1      -14.8100   56.3530   43.9400 O.3    72  THR72      -0.2208
     73  CG2      -14.0810   56.5170   46.2150 C.3    72  THR72       0.0378
     74  N         -1.6520   61.7930   43.5750 N.3   100  ALA100     -0.1231
     75  CA        -2.4580   61.3420   44.6950 C.3   100  ALA100      0.1694
     76  C         -2.5180   59.8300   44.5120 C.2   100  ALA100      0.2592
     77  O         -2.4800   59.3360   43.3850 O.2   100  ALA100     -0.2718
     78  CB        -3.8520   61.9410   44.6230 C.3   100  ALA100      0.0304
     79  N         -2.5870   59.0890   45.6080 N.am  101  ASN101     -0.1960
     80  CA        -2.6590   57.6390   45.5180 C.3   101  ASN101      0.1819
     81  C         -3.3300   57.1060   46.7680 C.2   101  ASN101      0.2621
     82  O         -3.5740   57.8530   47.7090 O.2   101  ASN101     -0.2715
     83  CB        -1.2590   57.0300   45.3730 C.3   101  ASN101      0.1195
     84  CG        -0.3550   57.3350   46.5620 C.2   101  ASN101      0.2630
     85  OD1       -0.7310   57.1200   47.7190 O.2   101  ASN101     -0.2716
     86  ND2        0.8500   57.8290   46.2800 N.am  101  ASN101     -0.0877
     87  N         -3.6310   55.8160   46.7720 N.am  102  ALA102     -0.1977
     88  CA        -4.2750   55.1960   47.9200 C.3   102  ALA102      0.1597
     89  C         -3.3450   54.1570   48.5290 C.2   102  ALA102      0.2287
     90  O         -3.7980   53.1620   49.0910 O.2   102  ALA102     -0.2864
     91  CB        -5.5850   54.5430   47.4920 C.3   102  ALA102      0.0319
     92  N         -5.5240   60.7170   39.6000 N.3   110  GLN110     -0.1245
     93  CA        -5.6480   61.7600   40.6130 C.3   110  GLN110      0.1566
     94  C         -4.3150   62.4050   40.9830 C.2   110  GLN110      0.2260
     95  O         -3.2910   61.7360   41.1520 O.2   110  GLN110     -0.2867
     96  CB        -6.3430   61.2140   41.8600 C.3   110  GLN110      0.0367
     97  CG        -7.8100   60.9130   41.6310 C.3   110  GLN110      0.0905
     98  CD        -8.5330   60.5580   42.9040 C.2   110  GLN110      0.2608
     99  OE1       -8.5700   61.3470   43.8430 O.2   110  GLN110     -0.2717
    100  NE2       -9.1160   59.3660   42.9450 N.am  110  GLN110     -0.0878
    101  N         -2.5990   66.3210   42.9190 N.3   112  PHE112     -0.1241
    102  CA        -2.8940   67.4550   43.7760 C.3   112  PHE112      0.1605
    103  C         -1.8570   68.5360   43.5530 C.2   112  PHE112      0.2264
    104  O         -0.7510   68.2680   43.0780 O.2   112  PHE112     -0.2867
    105  CB        -2.9790   67.0680   45.2700 C.3   112  PHE112      0.0534
    106  CG        -1.7340   66.4300   45.8340 C.ar  112  PHE112     -0.0203
    107  CD1       -1.4880   65.0650   45.6610 C.ar  112  PHE112     -0.0042
    108  CD2       -0.8290   67.1840   46.5860 C.ar  112  PHE112     -0.0042
    109  CE1       -0.3570   64.4570   46.2340 C.ar  112  PHE112     -0.0003
    110  CE2        0.3020   66.5930   47.1630 C.ar  112  PHE112     -0.0003
    111  CZ         0.5400   65.2260   46.9890 C.ar  112  PHE112     -0.0000
    112  N          6.0650   66.1640   54.7520 N.3   120  TRP120     -0.1227
    113  CA         5.6690   64.8600   55.2830 C.3   120  TRP120      0.1737
    114  C          5.1460   63.9130   54.2020 C.2   120  TRP120      0.2595
    115  O          4.9580   62.7240   54.4510 O.2   120  TRP120     -0.2718
    116  CB         4.6320   65.0180   56.4010 C.3   120  TRP120      0.0564
    117  CG         3.2750   65.4590   55.9650 C.ar  120  TRP120      0.0003
    118  CD1        2.2080   64.6610   55.6470 C.ar  120  TRP120      0.0946
    119  CD2        2.8190   66.8070   55.8370 C.ar  120  TRP120      0.0152
    120  NE1        1.1110   65.4330   55.3350 N.ar  120  TRP120     -0.2442
    121  CE2        1.4590   66.7550   55.4420 C.ar  120  TRP120      0.0810
    122  CE3        3.4250   68.0580   56.0170 C.ar  120  TRP120      0.0012
    123  CZ2        0.6960   67.9060   55.2260 C.ar  120  TRP120      0.0191
    124  CZ3        2.6640   69.2070   55.8010 C.ar  120  TRP120      0.0001
    125  CH2        1.3140   69.1200   55.4090 C.ar  120  TRP120      0.0015
    126  N          4.9240   64.4410   53.0010 N.am  121  LEU121     -0.1980
    127  CA         4.4390   63.6370   51.8860 C.3   121  LEU121      0.1596
    128  C          5.5960   63.0460   51.0700 C.2   121  LEU121      0.2287
    129  O          5.4000   62.0870   50.3150 O.2   121  LEU121     -0.2864
    130  CB         3.5350   64.4790   50.9790 C.3   121  LEU121      0.0297
    131  CG         2.2200   64.9310   51.6210 C.3   121  LEU121      0.0022
    132  CD1        1.3890   65.7250   50.6250 C.3   121  LEU121      0.0001
    133  CD2        1.4440   63.7100   52.1010 C.3   121  LEU121      0.0001
    134  N          4.3550   60.2260   47.8750 N.3   125  HIS125     -0.1241
    135  CA         3.7090   60.6450   46.6420 C.3   125  HIS125      0.1621
    136  C          4.7520   61.0970   45.6490 C.2   125  HIS125      0.2264
    137  O          5.7220   61.7560   46.0170 O.2   125  HIS125     -0.2867
    138  CB         2.7440   61.7790   46.9400 C.3   125  HIS125      0.0745
    139  CG         1.6750   61.4010   47.9120 C.ar  125  HIS125      0.0817
    140  ND1        0.4920   60.8120   47.5230 N.ar  125  HIS125     -0.2268
    141  CD2        1.6420   61.4620   49.2630 C.ar  125  HIS125      0.1154
    142  CE1       -0.2240   60.5260   48.5950 C.ar  125  HIS125      0.1986
    143  NE2        0.4510   60.9100   49.6640 N.ar  125  HIS125     -0.2212
    144  N        -11.7590   72.8440   55.7460 N.3   147  ARG147     -0.1245
    145  CA       -10.9310   71.9880   56.5940 C.3   147  ARG147      0.1563
    146  C        -10.9610   70.5130   56.1930 C.2   147  ARG147      0.2260
    147  O         -9.9300   69.8440   56.1940 O.2   147  ARG147     -0.2867
    148  CB       -11.3740   72.1030   58.0580 C.3   147  ARG147      0.0307
    149  CG       -11.6160   73.5230   58.5470 C.3   147  ARG147      0.0489
    150  CD       -10.3310   74.2700   58.8590 C.3   147  ARG147      0.2205
    151  NE        -9.7220   73.8340   60.1130 N.pl3 147  ARG147     -0.0865
    152  CZ        -8.6870   74.4400   60.6900 C.cat 147  ARG147      0.5346
    153  NH1       -8.1410   75.5120   60.1280 N.pl3 147  ARG147      0.1354
    154  NH2       -8.1950   73.9760   61.8310 N.pl3 147  ARG147      0.1354
@<TRIPOS>BOND
     1    92    93    1
     2    93    94    1
     3    93    96    1
     4    94    95    2
     5    97    96    1
     6    97    98    1
     7    70    69    2
     8    55    56    1
     9    98   100   am
    10    98    99    2
    11   101   102    1
    12    69    68    1
    13   104   103    2
    14    77    76    2
    15    48    49    2
    16    48    47    1
    17   103   102    1
    18    74    75    1
    19   102   105    1
    20    72    71    1
    21    62    60   am
    22    63    64    1
    23    63    57   am
    24    67    68    1
    25    67    65   am
    26    68    71    1
    27    56    59    1
    28    56    57    1
    29    61    60    2
    30    60    59    1
    31    76    75    1
    32    76    79   am
    33    47    46    1
    34    47    50    1
    35    78    75    1
    36    71    73    1
    37    64    65    1
    38    65    66    2
    39    57    58    2
    40    51    50    1
    41    51    52    1
    42   105   106    1
    43    83    80    1
    44    83    84    1
    45    80    79    1
    46    80    81    1
    47   136   137    2
    48   136   135    1
    49   107   106   ar
    50   107   109   ar
    51   106   108   ar
    52    54    52   am
    53     1     2    1
    54    52    53    2
    55   109   111   ar
    56    86    84   am
    57    84    85    2
    58   108   110   ar
    59   135   138    1
    60   135   134    1
    61    81    87   am
    62    81    82    2
    63    87    88    1
    64   138   139    1
    65     4     3    2
    66   111   110   ar
    67     2     3    1
    68     2     5    1
    69    91    88    1
    70   140   139   ar
    71   140   142   ar
    72    40    39    1
    73    40    41    2
    74     5     6    1
    75   139   141   ar
    76    88    89    1
    77    44    43    1
    78    44    45    1
    79    42    39    1
    80    42    43    1
    81    39    38    1
    82    89    90    2
    83   142   143   ar
    84   141   143   ar
    85     6     7    1
    86     7     8    1
    87    38    29   am
    88    30    29    2
    89    10     9    1
    90   129   128    2
    91    12    13    1
    92    29    28    1
    93   132   131    1
    94     8     9    2
    95   130   131    1
    96   130   127    1
    97   128   127    1
    98     9    11    1
    99   131   133    1
   100    15    14    2
   101    13    14    1
   102    13    16    1
   103    14    20   am
   104   127   126    1
   105    28    27    1
   106    28    31    1
   107    20    21    1
   108    20    26    1
   109    21    24    1
   110    21    22    1
   111    35    33   ar
   112    35    37   ar
   113    25    26    1
   114    25    24    1
   115    33    32   ar
   116    17    16    1
   117    17    19    1
   118    37    36   ar
   119    16    18    1
   120    32    31    1
   121    32    34   ar
   122    36    34   ar
   123   126   114   am
   124    22    23    2
   125   114   115    2
   126   114   113    1
   127   112   113    1
   128   123   125   ar
   129   123   121   ar
   130   113   116    1
   131   120   121   ar
   132   120   118   ar
   133   125   124   ar
   134   121   119   ar
   135   118   117   ar
   136   144   145    1
   137   124   122   ar
   138   119   117   ar
   139   119   122   ar
   140   117   116    1
   141   146   147    2
   142   146   145    1
   143   145   148    1
   144   148   149    1
   145   149   150    1
   146   150   151    1
   147   151   152    2
   148   153   152    1
   149   152   154    1
