@<TRIPOS>MOLECULE
tmp/1zklA00.pdb
 130 125 0 0 0
SMALL
GASTEIGER

@<TRIPOS>ATOM
      1  N         -4.9660   48.3980   13.3790 N.3    73  TYR73      -0.1227
      2  CA        -4.7800   47.7980   14.6980 C.3    73  TYR73       0.1736
      3  C         -6.0660   47.4350   15.4390 C.2    73  TYR73       0.2595
      4  O         -6.2360   46.2920   15.8710 O.2    73  TYR73      -0.2718
      5  CB        -3.9530   48.7290   15.5880 C.3    73  TYR73       0.0548
      6  CG        -3.6050   48.1190   16.9310 C.ar   73  TYR73      -0.0200
      7  CD1       -2.5530   47.2060   17.0580 C.ar   73  TYR73      -0.0009
      8  CD2       -4.3430   48.4330   18.0700 C.ar   73  TYR73      -0.0009
      9  CE1       -2.2490   46.6240   18.2930 C.ar   73  TYR73       0.0417
     10  CE2       -4.0490   47.8570   19.3050 C.ar   73  TYR73       0.0417
     11  CZ        -3.0050   46.9550   19.4140 C.ar   73  TYR73       0.1957
     12  OH        -2.7170   46.3940   20.6420 O.3    73  TYR73      -0.2866
     13  N         -6.9640   48.4020   15.6000 N.am   74  HIS74      -0.1975
     14  CA        -8.1990   48.1450   16.3370 C.3    74  HIS74       0.1656
     15  C         -9.2620   47.4180   15.5250 C.2    74  HIS74       0.2291
     16  O        -10.2590   47.9930   15.0900 O.2    74  HIS74      -0.2864
     17  CB        -8.7440   49.4520   16.9280 C.3    74  HIS74       0.0771
     18  CG        -7.9350   49.9630   18.0810 C.ar   74  HIS74       0.0820
     19  ND1       -7.0870   51.0470   17.9800 N.ar   74  HIS74      -0.2267
     20  CD2       -7.8080   49.5050   19.3500 C.ar   74  HIS74       0.1154
     21  CE1       -6.4750   51.2340   19.1360 C.ar   74  HIS74       0.1986
     22  NE2       -6.8940   50.3100   19.9840 N.ar   74  HIS74      -0.2212
     23  N         -6.9610   53.9390   28.6650 N.3   185  ILE185     -0.1245
     24  CA        -5.5780   54.1800   29.0570 C.3   185  ILE185      0.1561
     25  C         -5.3480   55.5060   29.7870 C.2   185  ILE185      0.2260
     26  O         -4.4500   55.6070   30.6260 O.2   185  ILE185     -0.2867
     27  CB        -4.6410   54.0890   27.8230 C.3   185  ILE185      0.0252
     28  CG1       -3.1960   53.8800   28.2750 C.3   185  ILE185      0.0019
     29  CG2       -4.7710   55.3370   26.9720 C.3   185  ILE185      0.0019
     30  CD1       -2.9660   52.5580   28.9620 C.3   185  ILE185      0.0001
     31  N         -4.7440   44.0940   27.2420 N.3   224  ASP224     -0.1225
     32  CA        -4.9020   45.1390   26.2390 C.3   224  ASP224      0.1805
     33  C         -3.5800   45.7890   25.8150 C.2   224  ASP224      0.2597
     34  O         -3.4810   46.3030   24.7020 O.2   224  ASP224     -0.2718
     35  CB        -5.8860   46.1900   26.7750 C.3   224  ASP224      0.1424
     36  CG        -6.4420   47.1080   25.6920 C.2   224  ASP224      0.3668
     37  OD1       -6.5540   46.7030   24.5100 O.co2 224  ASP224     -0.2456
     38  OD2       -6.7980   48.2530   26.0470 O.co2 224  ASP224     -0.2456
     39  N         -2.5680   45.7810   26.6820 N.am  225  ILE225     -0.1980
     40  CA        -1.2850   46.3870   26.3010 C.3   225  ILE225      0.1595
     41  C         -0.1020   45.4290   26.4610 C.2   225  ILE225      0.2287
     42  O          1.0250   45.8520   26.7320 O.2   225  ILE225     -0.2864
     43  CB        -0.9850   47.7020   27.0930 C.3   225  ILE225      0.0276
     44  CG1       -0.7920   47.4130   28.5830 C.3   225  ILE225      0.0022
     45  CG2       -2.1180   48.7090   26.8810 C.3   225  ILE225      0.0022
     46  CD1       -0.3460   48.6380   29.3840 C.3   225  ILE225      0.0001
     47  N          1.2020   43.6250   24.0460 N.3   227  ASN227     -0.1240
     48  CA         1.9180   43.4070   22.7840 C.3   227  ASN227      0.1653
     49  C          3.4390   43.3670   22.9840 C.2   227  ASN227      0.2266
     50  O          4.1190   42.4970   22.4350 O.2   227  ASN227     -0.2867
     51  CB         1.5830   44.4970   21.7550 C.3   227  ASN227      0.1155
     52  CG         0.2090   44.3250   21.1220 C.2   227  ASN227      0.2627
     53  OD1       -0.2910   45.2360   20.4600 O.2   227  ASN227     -0.2716
     54  ND2       -0.4010   43.1600   21.3100 N.am  227  ASN227     -0.0877
     55  N          2.7830   43.8880   15.8710 N.3   238  TRP238     -0.1241
     56  CA         1.8140   44.7160   16.5800 C.3   238  TRP238      0.1605
     57  C          2.2490   46.1790   16.5850 C.2   238  TRP238      0.2264
     58  O          1.4240   47.0730   16.4070 O.2   238  TRP238     -0.2867
     59  CB         1.6390   44.2340   18.0260 C.3   238  TRP238      0.0550
     60  CG         0.9300   42.9090   18.1620 C.ar  238  TRP238      0.0003
     61  CD1        1.4030   41.7920   18.7910 C.ar  238  TRP238      0.0946
     62  CD2       -0.3880   42.5800   17.6990 C.ar  238  TRP238      0.0152
     63  NE1        0.4640   40.7890   18.7520 N.ar  238  TRP238     -0.2442
     64  CE2       -0.6460   41.2430   18.0890 C.ar  238  TRP238      0.0810
     65  CE3       -1.3760   43.2800   16.9950 C.ar  238  TRP238      0.0012
     66  CZ2       -1.8530   40.5930   17.7980 C.ar  238  TRP238      0.0191
     67  CZ3       -2.5810   42.6310   16.7050 C.ar  238  TRP238      0.0001
     68  CH2       -2.8060   41.3020   17.1080 C.ar  238  TRP238      0.0015
     69  N         -0.0850   49.2850   15.0750 N.3   242  VAL242     -0.1245
     70  CA        -0.6290   50.3570   15.8970 C.3   242  VAL242      0.1561
     71  C         -0.0750   51.7140   15.4580 C.2   242  VAL242      0.2260
     72  O         -0.7790   52.7180   15.5040 O.2   242  VAL242     -0.2867
     73  CB        -0.3440   50.1190   17.4040 C.3   242  VAL242      0.0252
     74  CG1        1.1130   50.3890   17.7180 C.3   242  VAL242      0.0019
     75  CG2       -1.2630   50.9980   18.2480 C.3   242  VAL242      0.0019
     76  N         -2.0210   55.1100   14.1540 N.3   246  PHE246     -0.1241
     77  CA        -1.7680   56.4260   14.7430 C.3   246  PHE246      0.1605
     78  C         -1.4280   57.4310   13.6490 C.2   246  PHE246      0.2264
     79  O         -2.0010   58.5210   13.5900 O.2   246  PHE246     -0.2867
     80  CB        -0.5850   56.3890   15.7210 C.3   246  PHE246      0.0534
     81  CG        -0.8680   55.6850   17.0220 C.ar  246  PHE246     -0.0203
     82  CD1       -2.1290   55.1780   17.3140 C.ar  246  PHE246     -0.0042
     83  CD2        0.1460   55.5420   17.9650 C.ar  246  PHE246     -0.0042
     84  CE1       -2.3760   54.5360   18.5280 C.ar  246  PHE246     -0.0003
     85  CE2       -0.0900   54.9040   19.1810 C.ar  246  PHE246     -0.0003
     86  CZ        -1.3530   54.4010   19.4610 C.ar  246  PHE246     -0.0000
     87  N          1.9330   61.3040   19.3210 N.3   263  LEU263     -0.1245
     88  CA         2.2230   59.9740   18.7880 C.3   263  LEU263      0.1561
     89  C          1.6590   59.7260   17.3920 C.2   263  LEU263      0.2260
     90  O          1.7870   58.6220   16.8620 O.2   263  LEU263     -0.2867
     91  CB         1.6810   58.8940   19.7350 C.3   263  LEU263      0.0270
     92  CG         1.9590   59.0570   21.2300 C.3   263  LEU263      0.0019
     93  CD1        1.2930   57.9160   21.9920 C.3   263  LEU263      0.0001
     94  CD2        3.4570   59.0760   21.4850 C.3   263  LEU263      0.0001
     95  N          8.2120   55.9300   19.9630 N.3   274  ILE274     -0.1231
     96  CA         6.8350   55.7030   20.3860 C.3   274  ILE274      0.1692
     97  C          6.7760   54.3940   21.1670 C.2   274  ILE274      0.2591
     98  O          6.2090   54.3350   22.2590 O.2   274  ILE274     -0.2718
     99  CB         5.8770   55.6340   19.1720 C.3   274  ILE274      0.0266
    100  CG1        5.7760   57.0160   18.5200 C.3   274  ILE274      0.0019
    101  CG2        4.5000   55.1500   19.6150 C.3   274  ILE274      0.0020
    102  CD1        4.9560   57.0440   17.2400 C.3   274  ILE274      0.0001
    103  N          7.3820   53.3490   20.6140 N.am  275  GLN275     -0.1979
    104  CA         7.3890   52.0490   21.2730 C.3   275  GLN275      0.1601
    105  C          8.1810   52.0570   22.5780 C.2   275  GLN275      0.2287
    106  O          7.7380   51.5060   23.5850 O.2   275  GLN275     -0.2864
    107  CB         7.9540   50.9870   20.3310 C.3   275  GLN275      0.0394
    108  CG         7.0690   50.7360   19.1250 C.3   275  GLN275      0.0908
    109  CD         5.6400   50.4430   19.5330 C.2   275  GLN275      0.2608
    110  OE1        5.3860   49.5300   20.3140 O.2   275  GLN275     -0.2717
    111  NE2        4.7000   51.2210   19.0090 N.am  275  GLN275     -0.0878
    112  N          6.2200   53.9300   25.2670 N.3   278  PHE278     -0.1241
    113  CA         5.0610   53.1280   25.6500 C.3   278  PHE278      0.1605
    114  C          5.4710   52.0030   26.5970 C.2   278  PHE278      0.2264
    115  O          4.8240   51.7620   27.6160 O.2   278  PHE278     -0.2867
    116  CB         4.4160   52.5490   24.3870 C.3   278  PHE278      0.0534
    117  CG         3.2990   51.5780   24.6510 C.ar  278  PHE278     -0.0203
    118  CD1        2.1630   51.9710   25.3450 C.ar  278  PHE278     -0.0042
    119  CD2        3.3720   50.2750   24.1670 C.ar  278  PHE278     -0.0042
    120  CE1        1.1080   51.0760   25.5540 C.ar  278  PHE278     -0.0003
    121  CE2        2.3230   49.3760   24.3720 C.ar  278  PHE278     -0.0003
    122  CZ         1.1940   49.7790   25.0650 C.ar  278  PHE278     -0.0000
    123  N          4.1640   52.9340   30.3520 N.3   282  LEU282     -0.1245
    124  CA         2.8520   52.3090   30.5050 C.3   282  LEU282      0.1561
    125  C          2.8990   50.7980   30.7210 C.2   282  LEU282      0.2260
    126  O          2.2780   50.2820   31.6510 O.2   282  LEU282     -0.2867
    127  CB         1.9740   52.6350   29.2890 C.3   282  LEU282      0.0270
    128  CG         1.4500   54.0760   29.2720 C.3   282  LEU282      0.0019
    129  CD1        0.8790   54.4250   27.9060 C.3   282  LEU282      0.0001
    130  CD2        0.3970   54.2320   30.3650 C.3   282  LEU282      0.0001
@<TRIPOS>BOND
     1     1     2    1
     2    79    78    2
     3    78    77    1
     4    76    77    1
     5     2     3    1
     6     2     5    1
     7    77    80    1
     8    69    70    1
     9    16    15    2
    10     3    13   am
    11     3     4    2
    12    71    72    2
    13    71    70    1
    14    15    14    1
    15     5     6    1
    16    13    14    1
    17    80    81    1
    18    55    56    1
    19    70    73    1
    20    14    17    1
    21    58    57    2
    22    56    57    1
    23    56    59    1
    24    67    65   ar
    25    67    68   ar
    26    90    89    2
    27    17    18    1
    28     6     7   ar
    29     6     8   ar
    30    65    62   ar
    31    81    82   ar
    32    81    83   ar
    33     7     9   ar
    34    68    66   ar
    35   102   100    1
    36    82    84   ar
    37    89    88    1
    38    73    74    1
    39    73    75    1
    40    62    64   ar
    41    62    60   ar
    42    66    64   ar
    43    83    85   ar
    44    19    18   ar
    45    19    21   ar
    46    59    60    1
    47     8    10   ar
    48    18    20   ar
    49    64    63   ar
    50    60    61   ar
    51     9    11   ar
    52   100    99    1
    53    84    86   ar
    54    63    61   ar
    55    88    87    1
    56    88    91    1
    57   111   109   am
    58   108   109    1
    59   108   107    1
    60    21    22   ar
    61    99   101    1
    62    99    96    1
    63    85    86   ar
    64    10    11   ar
    65    20    22   ar
    66    11    12    1
    67   109   110    2
    68    91    92    1
    69    95    96    1
    70   107   104    1
    71    96    97    1
    72    53    52    2
    73   103    97   am
    74   103   104    1
    75    52    54   am
    76    52    51    1
    77    97    98    2
    78    92    94    1
    79    92    93    1
    80   104   105    1
    81    51    48    1
    82    50    49    2
    83   105   106    2
    84    48    49    1
    85    48    47    1
    86   119   121   ar
    87   119   117   ar
    88   121   122   ar
    89   116   117    1
    90   116   113    1
    91    37    36   ar
    92   117   118   ar
    93    34    33    2
    94   122   120   ar
    95   112   113    1
    96   118   120   ar
    97   113   114    1
    98    36    38   ar
    99    36    35    1
   100    33    32    1
   101    33    39   am
   102    32    35    1
   103    32    31    1
   104    40    41    1
   105    40    39    1
   106    40    43    1
   107    41    42    2
   108   114   115    2
   109    45    43    1
   110    29    27    1
   111    43    44    1
   112    27    28    1
   113    27    24    1
   114   129   128    1
   115    28    30    1
   116    44    46    1
   117    23    24    1
   118    24    25    1
   119   128   127    1
   120   128   130    1
   121   127   124    1
   122    25    26    2
   123   123   124    1
   124   124   125    1
   125   125   126    2
