@<TRIPOS>MOLECULE
tmp/1zknA00.pdb
 130 125 0 0 0
SMALL
GASTEIGER

@<TRIPOS>ATOM
      1  N         12.6470   -0.7320   34.0240 N.3    81  TYR81      -0.1227
      2  CA        13.8800   -0.1500   33.4830 C.3    81  TYR81       0.1736
      3  C         13.7120    0.7120   32.2270 C.2    81  TYR81       0.2595
      4  O         14.0890    1.8920   32.2160 O.2    81  TYR81      -0.2718
      5  CB        14.9020   -1.2540   33.1770 C.3    81  TYR81       0.0548
      6  CG        16.2400   -0.7100   32.7220 C.ar   81  TYR81      -0.0200
      7  CD1       17.2570   -0.4420   33.6410 C.ar   81  TYR81      -0.0009
      8  CD2       16.4760   -0.4150   31.3690 C.ar   81  TYR81      -0.0009
      9  CE1       18.4760    0.1070   33.2270 C.ar   81  TYR81       0.0417
     10  CE2       17.6870    0.1360   30.9460 C.ar   81  TYR81       0.0417
     11  CZ        18.6820    0.3940   31.8750 C.ar   81  TYR81       0.1957
     12  OH        19.8770    0.9350   31.4580 O.3    81  TYR81      -0.2866
     13  N         13.1690    0.1170   31.1670 N.am   82  HIS82      -0.1975
     14  CA        12.9880    0.8310   29.9040 C.3    82  HIS82       0.1656
     15  C         11.8060    1.7850   29.9250 C.2    82  HIS82       0.2291
     16  O         10.8000    1.5780   29.2330 O.2    82  HIS82      -0.2864
     17  CB        12.8510   -0.1660   28.7410 C.3    82  HIS82       0.0771
     18  CG        14.0920   -0.9700   28.4920 C.ar   82  HIS82       0.0820
     19  ND1       14.2060   -2.2960   28.8470 N.ar   82  HIS82      -0.2267
     20  CD2       15.2840   -0.6230   27.9480 C.ar   82  HIS82       0.1154
     21  CE1       15.4130   -2.7330   28.5350 C.ar   82  HIS82       0.1986
     22  NE2       16.0880   -1.7360   27.9890 N.ar   82  HIS82      -0.2212
     23  N         21.5170   -4.3650   20.6250 N.3   195  MET195     -0.1245
     24  CA        22.7290   -5.0460   21.0610 C.3   195  MET195      0.1570
     25  C         23.3190   -5.9940   20.0200 C.2   195  MET195      0.2261
     26  O         24.5270   -6.2300   20.0110 O.2   195  MET195     -0.2867
     27  CB        22.4680   -5.7970   22.3670 C.3   195  MET195      0.0387
     28  CG        22.3460   -4.8860   23.5820 C.3   195  MET195      0.0595
     29  SD        23.8860   -3.9830   23.9290 S.3   195  MET195     -0.1393
     30  CE        24.9750   -5.3540   24.2990 C.3   195  MET195      0.0692
     31  N         23.6690    4.5850   26.5010 N.3   240  ASP240     -0.1225
     32  CA        22.6420    3.5900   26.8060 C.3   240  ASP240      0.1805
     33  C         23.2280    2.5100   27.7230 C.2   240  ASP240      0.2597
     34  O         22.5020    1.8240   28.4430 O.2   240  ASP240     -0.2718
     35  CB        22.1300    2.9790   25.4950 C.3   240  ASP240      0.1424
     36  CG        20.8550    2.1680   25.6630 C.2   240  ASP240      0.3668
     37  OD1       19.9540    2.5590   26.4470 O.co2 240  ASP240     -0.2456
     38  OD2       20.7410    1.1410   24.9640 O.co2 240  ASP240     -0.2456
     39  N         24.5480    2.3700   27.6890 N.am  241  LEU241     -0.1979
     40  CA        25.2310    1.3870   28.5130 C.3   241  LEU241      0.1596
     41  C         26.1050    2.0870   29.5480 C.2   241  LEU241      0.2287
     42  O         27.1810    1.6020   29.8860 O.2   241  LEU241     -0.2864
     43  CB        26.0950    0.4790   27.6290 C.3   241  LEU241      0.0297
     44  CG        25.3520   -0.4170   26.6330 C.3   241  LEU241      0.0022
     45  CD1       26.3430   -1.3070   25.8950 C.3   241  LEU241      0.0001
     46  CD2       24.3280   -1.2710   27.3850 C.3   241  LEU241      0.0001
     47  N         25.0830    2.9810   32.8340 N.3   243  ASN243     -0.1240
     48  CA        24.7220    2.7520   34.2410 C.3   243  ASN243      0.1653
     49  C         25.9050    2.3190   35.1180 C.2   243  ASN243      0.2266
     50  O         26.0730    2.8260   36.2240 O.2   243  ASN243     -0.2867
     51  CB        23.6170    1.6870   34.3870 C.3   243  ASN243      0.1155
     52  CG        22.3160    2.0620   33.6910 C.2   243  ASN243      0.2627
     53  OD1       22.0230    3.2350   33.4560 O.2   243  ASN243     -0.2716
     54  ND2       21.5190    1.0540   33.3770 N.am  243  ASN243     -0.0877
     55  N         16.5960   -3.1070   36.0810 N.3   258  ILE258     -0.1231
     56  CA        16.7450   -4.0120   34.9530 C.3   258  ILE258      0.1692
     57  C         16.4960   -5.4600   35.3940 C.2   258  ILE258      0.2591
     58  O         15.9020   -6.2490   34.6570 O.2   258  ILE258     -0.2718
     59  CB        18.1510   -3.8780   34.2960 C.3   258  ILE258      0.0266
     60  CG1       18.1580   -4.5990   32.9440 C.3   258  ILE258      0.0019
     61  CG2       19.2290   -4.5010   35.1870 C.3   258  ILE258      0.0020
     62  CD1       16.9810   -4.2440   32.0590 C.3   258  ILE258      0.0001
     63  N         16.9320   -5.8050   36.6060 N.am  259  MET259     -0.1979
     64  CA        16.7310   -7.1640   37.1080 C.3   259  MET259      0.1605
     65  C         15.2430   -7.4150   37.3480 C.2   259  MET259      0.2287
     66  O         14.7370   -8.5010   37.0660 O.2   259  MET259     -0.2864
     67  CB        17.5280   -7.3960   38.4000 C.3   259  MET259      0.0413
     68  CG        19.0450   -7.4350   38.2100 C.3   259  MET259      0.0598
     69  SD        19.5960   -8.4980   36.8330 S.3   259  MET259     -0.1393
     70  CE        19.0960  -10.1290   37.4030 C.3   259  MET259      0.0692
     71  N         13.7590   -7.9580   33.9840 N.3   262  PHE262     -0.1241
     72  CA        14.1820   -9.2730   33.5010 C.3   262  PHE262      0.1605
     73  C         13.3850  -10.3900   34.1780 C.2   262  PHE262      0.2264
     74  O         12.9170  -11.3230   33.5200 O.2   262  PHE262     -0.2867
     75  CB        15.6690   -9.4870   33.7950 C.3   262  PHE262      0.0534
     76  CG        16.5970   -8.9050   32.7560 C.ar  262  PHE262     -0.0203
     77  CD1       16.1300   -8.0110   31.7930 C.ar  262  PHE262     -0.0042
     78  CD2       17.9420   -9.2560   32.7460 C.ar  262  PHE262     -0.0042
     79  CE1       16.9900   -7.4770   30.8360 C.ar  262  PHE262     -0.0003
     80  CE2       18.8130   -8.7240   31.7910 C.ar  262  PHE262     -0.0003
     81  CZ        18.3340   -7.8340   30.8350 C.ar  262  PHE262     -0.0000
     82  N         18.1920  -15.8380   29.4650 N.3   278  PRO278     -0.2102
     83  CA        19.3670  -15.6470   30.3200 C.3   278  PRO278      0.1504
     84  C         19.1880  -14.4930   31.3040 C.2   278  PRO278      0.2575
     85  O         18.7900  -13.3910   30.9140 O.2   278  PRO278     -0.2718
     86  CB        20.4800  -15.3800   29.3140 C.3   278  PRO278      0.0282
     87  CG        20.0430  -16.1830   28.1120 C.3   278  PRO278      0.0208
     88  CD        18.5780  -15.8510   28.0410 C.3   278  PRO278      0.0893
     89  N         19.4820  -14.7590   32.5750 N.am  279  MET279     -0.1980
     90  CA        19.3660  -13.7690   33.6400 C.3   279  MET279      0.1605
     91  C         17.9190  -13.4200   33.9890 C.2   279  MET279      0.2287
     92  O         17.6790  -12.5170   34.7830 O.2   279  MET279     -0.2864
     93  CB        20.1020  -12.4840   33.2540 C.3   279  MET279      0.0413
     94  CG        21.5420  -12.6900   32.8390 C.3   279  MET279      0.0598
     95  SD        22.2940  -11.1390   32.2940 S.3   279  MET279     -0.1393
     96  CE        21.7310  -11.0710   30.5620 C.3   279  MET279      0.0692
     97  N         26.3650  -11.7250   37.0060 N.3   290  SER290     -0.1202
     98  CA        25.9150  -11.1740   35.7400 C.3   290  SER290      0.2020
     99  C         26.4540   -9.7580   35.5310 C.2   290  SER290      0.2618
    100  O         26.9110   -9.4220   34.4400 O.2   290  SER290     -0.2717
    101  CB        24.3910  -11.1750   35.6800 C.3   290  SER290      0.2103
    102  OG        23.8970  -12.5030   35.7230 O.3   290  SER290     -0.2182
    103  N         26.4110   -8.9250   36.5640 N.am  291  GLN291     -0.1979
    104  CA        26.9260   -7.5690   36.4130 C.3   291  GLN291      0.1601
    105  C         28.4160   -7.6040   36.1000 C.2   291  GLN291      0.2287
    106  O         28.9060   -6.8130   35.2900 O.2   291  GLN291     -0.2864
    107  CB        26.6720   -6.7390   37.6730 C.3   291  GLN291      0.0394
    108  CG        25.2440   -6.2330   37.7810 C.3   291  GLN291      0.0908
    109  CD        24.7810   -5.5280   36.5100 C.2   291  GLN291      0.2608
    110  OE1       25.3880   -4.5520   36.0650 O.2   291  GLN291     -0.2717
    111  NE2       23.7040   -6.0290   35.9190 N.am  291  GLN291     -0.0878
    112  N         28.6980   -8.7300   32.5490 N.3   294  PHE294     -0.1241
    113  CA        28.2030   -7.6520   31.7020 C.3   294  PHE294      0.1605
    114  C         29.2920   -6.6060   31.4920 C.2   294  PHE294      0.2264
    115  O         29.5240   -6.1490   30.3710 O.2   294  PHE294     -0.2867
    116  CB        26.9730   -7.0250   32.3660 C.3   294  PHE294      0.0534
    117  CG        26.4140   -5.8360   31.6380 C.ar  294  PHE294     -0.0203
    118  CD1       26.2050   -5.8730   30.2620 C.ar  294  PHE294     -0.0042
    119  CD2       26.0350   -4.6950   32.3450 C.ar  294  PHE294     -0.0042
    120  CE1       25.6240   -4.7900   29.5990 C.ar  294  PHE294     -0.0003
    121  CE2       25.4520   -3.6060   31.6930 C.ar  294  PHE294     -0.0003
    122  CZ        25.2450   -3.6560   30.3150 C.ar  294  PHE294     -0.0000
    123  N         31.2220   -6.6320   27.8540 N.3   298  ILE298     -0.1245
    124  CA        30.5900   -5.6090   27.0290 C.3   298  ILE298      0.1561
    125  C         30.8740   -4.1660   27.4070 C.2   298  ILE298      0.2260
    126  O         31.4950   -3.4310   26.6470 O.2   298  ILE298     -0.2867
    127  CB        29.0570   -5.8120   27.0080 C.3   298  ILE298      0.0252
    128  CG1       28.7320   -7.1770   26.3930 C.3   298  ILE298      0.0019
    129  CG2       28.3780   -4.6840   26.2250 C.3   298  ILE298      0.0019
    130  CD1       27.2700   -7.5500   26.4770 C.3   298  ILE298      0.0001
@<TRIPOS>BOND
     1    26    25    2
     2    25    24    1
     3    23    24    1
     4    24    27    1
     5    27    28    1
     6    28    29    1
     7    29    30    1
     8    38    36   ar
     9    35    36    1
    10    35    32    1
    11    36    37   ar
    12    45    44    1
    13   129   127    1
    14   128   130    1
    15   128   127    1
    16    31    32    1
    17    44    46    1
    18    44    43    1
    19   126   125    2
    20    32    33    1
    21   127   124    1
    22   124   125    1
    23   124   123    1
    24    43    40    1
    25    39    33   am
    26    39    40    1
    27    33    34    2
    28    20    22   ar
    29    20    18   ar
    30    22    21   ar
    31    88    87    1
    32    88    82    1
    33    87    86    1
    34    18    17    1
    35    18    19   ar
    36    40    41    1
    37    21    19   ar
    38    17    14    1
    39    16    15    2
    40    86    83    1
    41    82    83    1
    42    41    42    2
    43   120   118   ar
    44   120   122   ar
    45    14    15    1
    46    14    13    1
    47   118   117   ar
    48   122   121   ar
    49    83    84    1
    50   115   114    2
    51    96    95    1
    52    81    79   ar
    53    81    80   ar
    54    79    77   ar
    55    85    84    2
    56    10     8   ar
    57    10    11   ar
    58    13     3   am
    59    84    89   am
    60     8     6   ar
    61    12    11    1
    62   114   113    1
    63   117   119   ar
    64   117   116    1
    65   121   119   ar
    66   113   116    1
    67   113   112    1
    68    80    78   ar
    69    77    76   ar
    70    11     9   ar
    71    62    60    1
    72     4     3    2
    73     3     2    1
    74    95    94    1
    75    89    90    1
    76     6     5    1
    77     6     7   ar
    78    78    76   ar
    79    76    75    1
    80    47    48    1
    81    94    93    1
    82    60    59    1
    83     5     2    1
    84     9     7   ar
    85    93    90    1
    86    54    52   am
    87    53    52    2
    88     2     1    1
    89    72    75    1
    90    72    71    1
    91    72    73    1
    92    74    73    2
    93    90    91    1
    94    52    51    1
    95    91    92    2
    96    48    51    1
    97    48    49    1
    98    59    56    1
    99    59    61    1
   100   100    99    2
   101    58    57    2
   102    56    57    1
   103    56    55    1
   104    49    50    2
   105   106   105    2
   106    57    63   am
   107    99    98    1
   108    99   103   am
   109   101   102    1
   110   101    98    1
   111    98    97    1
   112   111   109   am
   113   110   109    2
   114   105   104    1
   115   104   103    1
   116   104   107    1
   117   109   108    1
   118    63    64    1
   119    69    70    1
   120    69    68    1
   121    66    65    2
   122    64    65    1
   123    64    67    1
   124   107   108    1
   125    68    67    1
