@<TRIPOS>MOLECULE
tmp/1zkyA01.pdb
 186 175 0 0 0
SMALL
GASTEIGER

@<TRIPOS>ATOM
      1  N        -29.9620    7.5270  -12.6250 N.3    40  MET40      -0.1245
      2  CA       -29.9500    6.1700  -12.0770 C.3    40  MET40       0.1570
      3  C        -29.3230    5.1790  -13.0390 C.2    40  MET40       0.2261
      4  O        -28.5520    4.3230  -12.6260 O.2    40  MET40      -0.2867
      5  CB       -31.3650    5.6860  -11.7510 C.3    40  MET40       0.0387
      6  CG       -31.8430    6.0090  -10.3470 C.3    40  MET40       0.0595
      7  SD       -30.7690    5.3720   -9.0470 S.3    40  MET40      -0.1393
      8  CE       -31.0730    3.5950   -9.1460 C.3    40  MET40       0.0692
      9  N        -25.5130    5.6300  -13.1460 N.3    43  LEU43      -0.1231
     10  CA       -24.8630    5.2000  -11.9230 C.3    43  LEU43       0.1693
     11  C        -24.8620    3.6790  -11.7730 C.2    43  LEU43       0.2592
     12  O        -23.8620    3.1040  -11.3960 O.2    43  LEU43      -0.2718
     13  CB       -25.5150    5.8510  -10.7040 C.3    43  LEU43       0.0284
     14  CG       -25.3800    7.3790  -10.6090 C.3    43  LEU43       0.0019
     15  CD1      -26.0620    7.8600   -9.3470 C.3    43  LEU43       0.0001
     16  CD2      -23.9300    7.8150  -10.6130 C.3    43  LEU43       0.0001
     17  N        -25.9940    3.0440  -12.0530 N.am   44  THR44      -0.1953
     18  CA       -26.0850    1.5850  -11.9850 C.3    44  THR44       0.1897
     19  C        -25.3240    0.8950  -13.1330 C.2    44  THR44       0.2313
     20  O        -24.7690   -0.1890  -12.9430 O.2    44  THR44      -0.2863
     21  CB       -27.5380    1.1190  -11.9580 C.3    44  THR44       0.1794
     22  OG1      -28.2280    1.6190  -13.1090 O.3    44  THR44      -0.2208
     23  CG2      -28.2320    1.6070  -10.6850 C.3    44  THR44       0.0378
     24  N        -22.5470    2.1260  -14.4140 N.3    46  LEU46      -0.1231
     25  CA       -21.1770    2.2430  -13.9430 C.3    46  LEU46       0.1693
     26  C        -20.8560    1.1850  -12.8820 C.2    46  LEU46       0.2591
     27  O        -19.8570    0.4580  -12.9840 O.2    46  LEU46      -0.2718
     28  CB       -20.9400    3.6500  -13.3830 C.3    46  LEU46       0.0284
     29  CG       -19.5350    3.9090  -12.8330 C.3    46  LEU46       0.0019
     30  CD1      -18.4780    3.7390  -13.9510 C.3    46  LEU46       0.0001
     31  CD2      -19.4420    5.3040  -12.1590 C.3    46  LEU46       0.0001
     32  N        -21.7240    1.0920  -11.8790 N.am   47  ALA47      -0.1980
     33  CA       -21.5150    0.1740  -10.7600 C.3    47  ALA47       0.1597
     34  C        -21.4620   -1.2750  -11.2530 C.2    47  ALA47       0.2287
     35  O        -20.6200   -2.0550  -10.8100 O.2    47  ALA47      -0.2864
     36  CB       -22.6230    0.3440   -9.7180 C.3    47  ALA47       0.0319
     37  N        -18.1490   -1.8630  -12.6610 N.3    50  GLU50      -0.1245
     38  CA       -17.0750   -1.8690  -11.6720 C.3    50  GLU50       0.1567
     39  C        -17.0830   -3.1980  -10.9390 C.2    50  GLU50       0.2260
     40  O        -16.0340   -3.6820  -10.4980 O.2    50  GLU50      -0.2867
     41  CB       -17.2090   -0.7080  -10.6730 C.3    50  GLU50       0.0388
     42  CG       -16.9880    0.6830  -11.2730 C.3    50  GLU50       0.1160
     43  CD       -17.1030    1.7900  -10.2300 C.2    50  GLU50       0.3649
     44  OE1      -18.2390    2.2800   -9.9850 O.co2  50  GLU50      -0.2457
     45  OE2      -16.0500    2.1790   -9.6550 O.co2  50  GLU50      -0.2457
     46  N        -19.3000   -5.4390   -1.1710 N.3    79  TRP79      -0.1227
     47  CA       -19.2900   -4.8190   -2.4950 C.3    79  TRP79       0.1737
     48  C        -19.6590   -3.3260   -2.5250 C.2    79  TRP79       0.2595
     49  O        -18.9670   -2.5420   -3.1630 O.2    79  TRP79      -0.2718
     50  CB       -20.1400   -5.6370   -3.4820 C.3    79  TRP79       0.0564
     51  CG       -21.6250   -5.5060   -3.3090 C.ar   79  TRP79       0.0003
     52  CD1      -22.4340   -6.2910   -2.5450 C.ar   79  TRP79       0.0946
     53  CD2      -22.4800   -4.5550   -3.9550 C.ar   79  TRP79       0.0152
     54  NE1      -23.7390   -5.8710   -2.6480 N.ar   79  TRP79      -0.2442
     55  CE2      -23.7950   -4.8080   -3.5140 C.ar   79  TRP79       0.0810
     56  CE3      -22.2610   -3.5140   -4.8640 C.ar   79  TRP79       0.0012
     57  CZ2      -24.8930   -4.0540   -3.9510 C.ar   79  TRP79       0.0191
     58  CZ3      -23.3530   -2.7530   -5.2920 C.ar   79  TRP79       0.0001
     59  CH2      -24.6520   -3.0320   -4.8340 C.ar   79  TRP79       0.0015
     60  N        -20.7480   -2.9290   -1.8710 N.am   80  LEU80      -0.1980
     61  CA       -21.1260   -1.5270   -1.8750 C.3    80  LEU80       0.1596
     62  C        -20.1240   -0.6900   -1.0740 C.2    80  LEU80       0.2287
     63  O        -19.8770    0.4750   -1.3940 O.2    80  LEU80      -0.2864
     64  CB       -22.5490   -1.3170   -1.3400 C.3    80  LEU80       0.0297
     65  CG       -23.0680    0.1190   -1.5420 C.3    80  LEU80       0.0022
     66  CD1      -22.9900    0.5320   -3.0140 C.3    80  LEU80       0.0001
     67  CD2      -24.4900    0.2940   -1.0440 C.3    80  LEU80       0.0001
     68  N        -17.1780   -0.2160   -3.4730 N.3    83  LEU83      -0.1231
     69  CA       -17.4590    0.8000   -4.4870 C.3    83  LEU83       0.1693
     70  C        -17.4270    2.1800   -3.8500 C.2    83  LEU83       0.2591
     71  O        -16.8880    3.1260   -4.4160 O.2    83  LEU83      -0.2718
     72  CB       -18.8220    0.5840   -5.1600 C.3    83  LEU83       0.0284
     73  CG       -19.0280   -0.6020   -6.0930 C.3    83  LEU83       0.0019
     74  CD1      -20.4860   -0.6170   -6.5620 C.3    83  LEU83       0.0001
     75  CD2      -18.0790   -0.5110   -7.2820 C.3    83  LEU83       0.0001
     76  N        -18.0080    2.2880   -2.6650 N.am   84  MET84      -0.1979
     77  CA       -18.1310    3.5790   -2.0060 C.3    84  MET84       0.1605
     78  C        -16.7920    4.1670   -1.5770 C.2    84  MET84       0.2287
     79  O        -16.5630    5.3590   -1.7830 O.2    84  MET84      -0.2864
     80  CB       -19.0790    3.4700   -0.8160 C.3    84  MET84       0.0413
     81  CG       -20.5410    3.5880   -1.2130 C.3    84  MET84       0.0598
     82  SD       -21.6690    3.4800    0.1870 S.3    84  MET84      -0.1393
     83  CE       -23.1740    4.0360   -0.6010 C.3    84  MET84       0.0692
     84  N        -15.1480    5.3940   -4.6240 N.3    87  LEU87      -0.1245
     85  CA       -15.7110    6.6930   -5.0110 C.3    87  LEU87       0.1561
     86  C        -15.1380    7.8480   -4.1780 C.2    87  LEU87       0.2260
     87  O        -14.7330    8.8750   -4.7110 O.2    87  LEU87      -0.2867
     88  CB       -17.2290    6.6770   -4.8420 C.3    87  LEU87       0.0270
     89  CG       -17.9300    8.0240   -5.0550 C.3    87  LEU87       0.0019
     90  CD1      -17.7380    8.4840   -6.4830 C.3    87  LEU87       0.0001
     91  CD2      -19.4120    7.9100   -4.7460 C.3    87  LEU87       0.0001
     92  N        -11.5080    8.5480   -5.0670 N.3    90  ARG90      -0.1245
     93  CA       -11.4190    9.2820   -6.3440 C.3    90  ARG90       0.1563
     94  C        -11.8290   10.7490   -6.2260 C.2    90  ARG90       0.2260
     95  O        -11.3700   11.5920   -6.9900 O.2    90  ARG90      -0.2867
     96  CB       -12.3250    8.6530   -7.4080 C.3    90  ARG90       0.0307
     97  CG       -11.9700    7.2580   -7.7880 C.3    90  ARG90       0.0489
     98  CD       -12.6450    6.8760   -9.0920 C.3    90  ARG90       0.2205
     99  NE       -14.1060    6.8580   -9.0400 N.pl3  90  ARG90      -0.0865
    100  CZ       -14.8340    5.8240   -8.6310 C.cat  90  ARG90       0.5346
    101  NH1      -14.2480    4.7300   -8.1690 N.pl3  90  ARG90       0.1354
    102  NH2      -16.1540    5.8980   -8.6560 N.pl3  90  ARG90       0.1354
    103  N        -17.7300   10.0330   -9.8120 N.3   100  PHE100     -0.1241
    104  CA       -18.1570    8.6730  -10.1690 C.3   100  PHE100      0.1605
    105  C        -17.3080    8.1460  -11.2960 C.2   100  PHE100      0.2264
    106  O        -16.9000    6.9850  -11.2950 O.2   100  PHE100     -0.2867
    107  CB       -19.6480    8.6520  -10.5410 C.3   100  PHE100      0.0534
    108  CG       -20.5540    8.8700   -9.3550 C.ar  100  PHE100     -0.0203
    109  CD1      -20.8940    7.8130   -8.5200 C.ar  100  PHE100     -0.0042
    110  CD2      -21.0060   10.1410   -9.0370 C.ar  100  PHE100     -0.0042
    111  CE1      -21.7180    8.0260   -7.4150 C.ar  100  PHE100     -0.0003
    112  CE2      -21.8190   10.3580   -7.9290 C.ar  100  PHE100     -0.0003
    113  CZ       -22.1780    9.3100   -7.1230 C.ar  100  PHE100     -0.0000
    114  N        -31.4700   10.4740   -2.8970 N.3   116  MET116     -0.1245
    115  CA       -30.0540   10.2820   -3.1900 C.3   116  MET116      0.1570
    116  C        -29.1230   11.3120   -2.5480 C.2   116  MET116      0.2261
    117  O        -27.9670   11.0060   -2.2680 O.2   116  MET116     -0.2867
    118  CB       -29.7940   10.2220   -4.6950 C.3   116  MET116      0.0387
    119  CG       -28.4150    9.6680   -5.0180 C.3   116  MET116      0.0595
    120  SD       -28.2430    9.1350   -6.7290 S.3   116  MET116     -0.1393
    121  CE       -28.3340   10.7340   -7.5630 C.3   116  MET116      0.0692
    122  N        -27.4320   10.3420    0.6730 N.3   119  ILE119     -0.1231
    123  CA       -26.2640    9.4920    0.4580 C.3   119  ILE119      0.1692
    124  C        -25.0590   10.3320    0.0450 C.2   119  ILE119      0.2592
    125  O        -23.9850   10.2100    0.6250 O.2   119  ILE119     -0.2718
    126  CB       -26.5140    8.4230   -0.6210 C.3   119  ILE119      0.0266
    127  CG1      -27.8140    7.6540   -0.3310 C.3   119  ILE119      0.0019
    128  CG2      -25.3110    7.5000   -0.7310 C.3   119  ILE119      0.0020
    129  CD1      -27.8370    6.9350    1.0170 C.3   119  ILE119      0.0001
    130  N        -25.2430   11.1800   -0.9640 N.am  120  PHE120     -0.1976
    131  CA       -24.1680   12.0560   -1.4400 C.3   120  PHE120      0.1639
    132  C        -23.4880   12.7960   -0.2820 C.2   120  PHE120      0.2290
    133  O        -22.2620   12.8720   -0.2170 O.2   120  PHE120     -0.2864
    134  CB       -24.7100   13.0700   -2.4680 C.3   120  PHE120      0.0560
    135  CG       -24.7860   12.5390   -3.8840 C.ar  120  PHE120     -0.0200
    136  CD1      -24.6160   13.3990   -4.9660 C.ar  120  PHE120     -0.0042
    137  CD2      -25.0300   11.1860   -4.1330 C.ar  120  PHE120     -0.0042
    138  CE1      -24.6980   12.9410   -6.2640 C.ar  120  PHE120     -0.0003
    139  CE2      -25.1040   10.7050   -5.4450 C.ar  120  PHE120     -0.0003
    140  CZ       -24.9400   11.5930   -6.5160 C.ar  120  PHE120     -0.0000
    141  N        -21.1220   10.6060    1.6530 N.3   123  LEU123     -0.1245
    142  CA       -19.9440   10.3170    0.8480 C.3   123  LEU123      0.1561
    143  C        -19.0140   11.5280    0.8140 C.2   123  LEU123      0.2260
    144  O        -17.7990   11.4010    0.9890 O.2   123  LEU123     -0.2867
    145  CB       -20.3630    9.9390   -0.5730 C.3   123  LEU123      0.0270
    146  CG       -21.1090    8.6180   -0.7410 C.3   123  LEU123      0.0019
    147  CD1      -21.8350    8.5690   -2.0730 C.3   123  LEU123      0.0001
    148  CD2      -20.1360    7.4650   -0.6100 C.3   123  LEU123      0.0001
    149  N        -27.0820    3.1480    1.6840 N.3   209  GLY209     -0.1225
    150  CA       -27.1260    3.1050    0.2340 C.3   209  GLY209      0.1811
    151  C        -27.8200    1.8520   -0.2660 C.2   209  GLY209      0.2280
    152  O        -28.4980    1.8800   -1.2940 O.2   209  GLY209     -0.2866
    153  N        -31.4320    2.4610   -0.0630 N.3   212  HIS212     -0.1226
    154  CA       -31.8280    3.4090   -1.1060 C.3   212  HIS212      0.1752
    155  C        -31.9180    2.7240   -2.4610 C.2   212  HIS212      0.2595
    156  O        -32.8700    2.9270   -3.2150 O.2   212  HIS212     -0.2718
    157  CB       -30.8620    4.5990   -1.2010 C.3   212  HIS212      0.0759
    158  CG       -31.2590    5.6110   -2.2330 C.ar  212  HIS212      0.0818
    159  ND1      -30.4160    6.0200   -3.2460 N.ar  212  HIS212     -0.2268
    160  CD2      -32.4210    6.2850   -2.4150 C.ar  212  HIS212      0.1154
    161  CE1      -31.0370    6.9090   -3.9980 C.ar  212  HIS212      0.1986
    162  NE2      -32.2530    7.0900   -3.5140 N.ar  212  HIS212     -0.2212
    163  N        -30.9040    1.9280   -2.7700 N.am  213  LEU213     -0.1980
    164  CA       -30.8630    1.1830   -4.0160 C.3   213  LEU213      0.1596
    165  C        -32.0520    0.2300   -4.1230 C.2   213  LEU213      0.2287
    166  O        -32.6450    0.0760   -5.1900 O.2   213  LEU213     -0.2864
    167  CB       -29.5400    0.4230   -4.1260 C.3   213  LEU213      0.0297
    168  CG       -29.2940   -0.3790   -5.4000 C.3   213  LEU213      0.0022
    169  CD1      -29.5350    0.4710   -6.6340 C.3   213  LEU213      0.0001
    170  CD2      -27.8810   -0.9560   -5.3900 C.3   213  LEU213      0.0001
    171  N        -35.0490    2.2140   -4.8850 N.3   216  MET216     -0.1245
    172  CA       -35.0540    2.6050   -6.2860 C.3   216  MET216      0.1570
    173  C        -35.3990    1.4310   -7.2070 C.2   216  MET216      0.2261
    174  O        -35.8610    1.6310   -8.3330 O.2   216  MET216     -0.2867
    175  CB       -33.7110    3.2330   -6.6680 C.3   216  MET216      0.0387
    176  CG       -33.5000    4.6340   -6.0890 C.3   216  MET216      0.0595
    177  SD       -34.8230    5.8000   -6.5290 S.3   216  MET216     -0.1393
    178  CE       -35.9650    5.6220   -5.1560 C.3   216  MET216      0.0692
    179  N        -26.0190   -6.8940  -10.6030 N.3   227  LEU227     -0.1245
    180  CA       -26.3430   -5.8960   -9.5960 C.3   227  LEU227      0.1561
    181  C        -27.5250   -6.3560   -8.7360 C.2   227  LEU227      0.2260
    182  O        -27.4840   -6.2310   -7.5140 O.2   227  LEU227     -0.2867
    183  CB       -26.6150   -4.5390  -10.2530 C.3   227  LEU227      0.0270
    184  CG       -26.7670   -3.3210   -9.3380 C.3   227  LEU227      0.0019
    185  CD1      -25.5930   -3.2140   -8.3690 C.3   227  LEU227      0.0001
    186  CD2      -26.8920   -2.0550  -10.1740 C.3   227  LEU227      0.0001
@<TRIPOS>BOND
     1    24    25    1
     2    30    29    1
     3    25    28    1
     4    25    26    1
     5    28    29    1
     6     9    10    1
     7    19    20    2
     8    19    18    1
     9    22    21    1
    10     3     4    2
    11     3     2    1
    12    27    26    2
    13    26    32   am
    14    29    31    1
    15    37    38    1
    16     1     2    1
    17     2     5    1
    18    17    18    1
    19    17    11   am
    20    18    21    1
    21    21    23    1
    22    10    11    1
    23    10    13    1
    24    32    33    1
    25    11    12    2
    26     5     6    1
    27    38    39    1
    28    38    41    1
    29   105   106    2
    30   105   104    1
    31    42    41    1
    32    42    43    1
    33    34    35    2
    34    34    33    1
    35    39    40    2
    36    33    36    1
    37    13    14    1
    38    16    14    1
    39    14    15    1
    40   179   180    1
    41   107   104    1
    42   107   108    1
    43     6     7    1
    44   183   180    1
    45   183   184    1
    46    43    44   ar
    47    43    45   ar
    48   186   184    1
    49   104   103    1
    50   180   181    1
    51   108   110   ar
    52   108   109   ar
    53   184   185    1
    54     8     7    1
    55    98    99    1
    56    98    97    1
    57    99   100    2
    58   110   112   ar
    59   181   182    2
    60   102   100    1
    61   100   101    1
    62   109   111   ar
    63   174   173    2
    64   112   113   ar
    65    97    96    1
    66   121   120    1
    67   111   113   ar
    68    96    93    1
    69    75    73    1
    70   173   172    1
    71    95    94    2
    72   120   119    1
    73   175   172    1
    74   175   176    1
    75   169   168    1
    76    74    73    1
    77   177   176    1
    78   177   178    1
    79   140   138   ar
    80   140   139   ar
    81    90    89    1
    82    93    94    1
    83    93    92    1
    84   172   171    1
    85   138   136   ar
    86    73    72    1
    87   139   137   ar
    88   168   170    1
    89   168   167    1
    90    58    56   ar
    91    58    59   ar
    92   166   165    2
    93    72    69    1
    94    89    88    1
    95    89    91    1
    96   119   118    1
    97    85    88    1
    98    85    84    1
    99    85    86    1
   100   136   135   ar
   101    56    53   ar
   102    59    57   ar
   103    87    86    2
   104   118   115    1
   105    69    70    1
   106    69    68    1
   107    71    70    2
   108   137   135   ar
   109   167   164    1
   110   165   164    1
   111   164   163    1
   112   161   162   ar
   113   161   159   ar
   114    53    55   ar
   115    53    51   ar
   116    57    55   ar
   117   135   134    1
   118    70    76   am
   119    55    54   ar
   120   162   160   ar
   121    50    51    1
   122    50    47    1
   123    51    52   ar
   124   159   158   ar
   125   156   155    2
   126   115   114    1
   127   115   116    1
   128    49    48    2
   129    66    65    1
   130   163   155   am
   131    76    77    1
   132    54    52   ar
   133   116   117    2
   134    48    47    1
   135    48    60   am
   136    47    46    1
   137   134   131    1
   138   155   154    1
   139   160   158   ar
   140   158   157    1
   141   147   146    1
   142    77    78    1
   143    77    80    1
   144    61    60    1
   145    61    64    1
   146    61    62    1
   147    79    78    2
   148    65    64    1
   149    65    67    1
   150   131   130    1
   151   131   132    1
   152    63    62    2
   153   152   151    2
   154    81    80    1
   155    81    82    1
   156   157   154    1
   157   154   153    1
   158   130   124   am
   159   146   148    1
   160   146   145    1
   161   128   126    1
   162   126   127    1
   163   126   123    1
   164    83    82    1
   165   145   142    1
   166   127   129    1
   167   132   133    2
   168   151   150    1
   169   124   123    1
   170   124   125    2
   171   150   149    1
   172   123   122    1
   173   143   142    1
   174   143   144    2
   175   142   141    1
