@<TRIPOS>MOLECULE
tmp/1zl0A00.pdb
 88 84 0 0 0
SMALL
GASTEIGER

@<TRIPOS>ATOM
      1  N        -13.3690   35.9280   49.8340 N.3    86  GLY86      -0.1210
      2  CA       -13.3440   36.6330   51.1140 C.3    86  GLY86       0.1956
      3  C        -12.6220   35.8290   52.1150 C.2    86  GLY86       0.2611
      4  O        -11.3920   35.9120   52.2240 O.2    86  GLY86      -0.2717
      5  N        -13.3190   35.0380   52.8420 N.am   87  TYR87      -0.1976
      6  CA       -12.7300   34.1420   53.8590 C.3    87  TYR87       0.1639
      7  C        -13.6510   32.9930   54.1420 C.2    87  TYR87       0.2290
      8  O        -14.8520   33.1650   54.3520 O.2    87  TYR87      -0.2864
      9  CB       -12.4380   34.8710   55.1970 C.3    87  TYR87       0.0560
     10  CG       -12.0770   33.9070   56.3030 C.ar   87  TYR87      -0.0198
     11  CD1      -10.9870   33.0730   56.1890 C.ar   87  TYR87      -0.0009
     12  CD2      -12.8540   33.7420   57.4590 C.ar   87  TYR87      -0.0009
     13  CE1      -10.6870   32.0800   57.1440 C.ar   87  TYR87       0.0417
     14  CE2      -12.5820   32.7780   58.3980 C.ar   87  TYR87       0.0417
     15  CZ       -11.5150   31.9200   58.2260 C.ar   87  TYR87       0.1957
     16  OH       -11.2970   30.9190   59.1870 O.3    87  TYR87      -0.2866
     17  N         -9.1800   34.6690   45.1220 N.3   113  SER113     -0.1202
     18  CA        -9.2560   35.1710   46.4960 C.3   113  SER113      0.2020
     19  C         -9.0700   33.9620   47.4320 C.2   113  SER113      0.2618
     20  O         -8.2360   33.0950   47.1770 O.2   113  SER113     -0.2717
     21  CB       -10.5290   36.0640   46.6530 C.3   113  SER113      0.2103
     22  OG       -10.9470   36.3060   48.0100 O.3   113  SER113     -0.2182
     23  N         -9.8730   33.8730   48.4640 N.am  114  ASP114     -0.1973
     24  CA        -9.8820   32.7770   49.4030 C.3   114  ASP114      0.1709
     25  C        -10.0860   31.4400   48.7120 C.2   114  ASP114      0.2293
     26  O         -9.5960   30.4080   49.1910 O.2   114  ASP114     -0.2864
     27  CB       -11.0200   33.0350   50.4070 C.3   114  ASP114      0.1436
     28  CG       -11.2550   31.9180   51.4210 C.2   114  ASP114      0.3671
     29  OD1      -10.5480   31.9170   52.4650 O.co2 114  ASP114     -0.2456
     30  OD2      -12.1490   31.0700   51.2110 O.co2 114  ASP114     -0.2456
     31  N         -4.0740   33.8460   45.6980 N.3   190  ASN190     -0.1240
     32  CA        -3.9520   34.8790   46.7240 C.3   190  ASN190      0.1653
     33  C         -2.9080   34.5210   47.7570 C.2   190  ASN190      0.2266
     34  O         -2.9960   33.5020   48.4420 O.2   190  ASN190     -0.2867
     35  CB        -5.3040   35.0960   47.3820 C.3   190  ASN190      0.1155
     36  CG        -5.2580   36.2470   48.3420 C.2   190  ASN190      0.2627
     37  OD1       -5.2120   36.0580   49.5660 O.2   190  ASN190     -0.2716
     38  ND2       -5.2090   37.4600   47.8560 N.am  190  ASN190     -0.0877
     39  N         -2.0710   35.8900   50.7300 N.3   192  THR192     -0.1203
     40  CA        -2.5660   35.8230   52.1050 C.3   192  THR192      0.1994
     41  C         -3.3010   34.5250   52.3600 C.2   192  THR192      0.2617
     42  O         -3.0670   33.8550   53.3620 O.2   192  THR192     -0.2717
     43  CB        -3.4930   37.0310   52.3980 C.3   192  THR192      0.1784
     44  OG1       -2.7470   38.2430   52.3910 O.3   192  THR192     -0.2211
     45  CG2       -4.1540   36.9200   53.7600 C.3   192  THR192      0.0376
     46  N         -4.2310   34.1660   51.4950 N.am  193  ALA193     -0.1979
     47  CA        -5.0450   33.0060   51.6910 C.3   193  ALA193      0.1597
     48  C         -4.2060   31.7610   51.8160 C.2   193  ALA193      0.2287
     49  O         -4.4740   30.8710   52.6270 O.2   193  ALA193     -0.2864
     50  CB        -6.0460   32.8480   50.5560 C.3   193  ALA193      0.0319
     51  N         -2.2720   39.9020   45.5070 N.3   216  ASP216     -0.1225
     52  CA        -2.9520   40.2110   46.7870 C.3   216  ASP216      0.1805
     53  C         -3.6030   41.5730   46.7510 C.2   216  ASP216      0.2598
     54  O         -3.5830   42.2960   45.7450 O.2   216  ASP216     -0.2718
     55  CB        -1.9730   40.0440   47.9970 C.3   216  ASP216      0.1424
     56  CG        -2.5930   39.4320   49.2120 C.2   216  ASP216      0.3668
     57  OD1       -3.8160   39.6160   49.4470 O.co2 216  ASP216     -0.2456
     58  OD2       -1.8430   38.7660   49.9630 O.co2 216  ASP216     -0.2456
     59  N         -4.2260   41.9020   47.8860 N.am  217  VAL217     -0.1966
     60  CA        -5.0550   43.0880   48.0180 C.3   217  VAL217      0.1727
     61  C         -5.0060   43.5970   49.4570 C.2   217  VAL217      0.2617
     62  O         -5.0680   42.7900   50.3830 O.2   217  VAL217     -0.2715
     63  CB        -6.4900   42.7710   47.5710 C.3   217  VAL217      0.0290
     64  CG1       -7.1540   41.7140   48.4230 C.3   217  VAL217      0.0023
     65  CG2       -7.3640   44.0480   47.5580 C.3   217  VAL217      0.0023
     66  N         -4.9300   44.8880   49.6460 N.am  218  GLY218     -0.1940
     67  CA        -5.1800   45.4590   50.9600 C.3   218  GLY218      0.2014
     68  C         -4.1040   45.2180   51.9870 C.2   218  GLY218      0.2638
     69  O         -4.4240   45.1820   53.1650 O.2   218  GLY218     -0.2714
     70  N         -2.8530   45.0650   51.5850 N.am  219  GLU219     -0.1977
     71  CA        -1.7900   44.6770   52.5010 C.3   219  GLU219      0.1602
     72  C         -0.7020   45.7100   52.5590 C.2   219  GLU219      0.2287
     73  O         -0.1790   46.1250   51.5280 O.2   219  GLU219     -0.2864
     74  CB        -1.0800   43.4380   51.8330 C.3   219  GLU219      0.0415
     75  CG        -1.9240   42.1850   51.5860 C.3   219  GLU219      0.1163
     76  CD        -2.2340   41.6130   52.9340 C.2   219  GLU219      0.3649
     77  OE1       -3.3850   41.7340   53.4370 O.co2 219  GLU219     -0.2457
     78  OE2       -1.2640   41.1650   53.6090 O.co2 219  GLU219     -0.2457
     79  N         -7.1120   41.2530   42.1460 N.3   283  HIS283     -0.1241
     80  CA        -8.2560   41.9660   42.6920 C.3   283  HIS283      0.1621
     81  C         -8.6260   43.2460   41.9850 C.2   283  HIS283      0.2264
     82  O         -9.5850   43.8990   42.3990 O.2   283  HIS283     -0.2867
     83  CB        -8.0350   42.2190   44.1780 C.3   283  HIS283      0.0745
     84  CG        -8.3120   41.0330   45.0320 C.ar  283  HIS283      0.0817
     85  ND1       -7.4470   39.9750   45.1900 N.ar  283  HIS283     -0.2268
     86  CD2       -9.4010   40.7600   45.7800 C.ar  283  HIS283      0.1154
     87  CE1       -8.0160   39.0990   46.0350 C.ar  283  HIS283      0.1986
     88  NE2       -9.1890   39.5530   46.4000 N.ar  283  HIS283     -0.2212
@<TRIPOS>BOND
     1    81    82    2
     2    81    80    1
     3    79    80    1
     4    80    83    1
     5    83    84    1
     6    84    85   ar
     7    84    86   ar
     8    17    18    1
     9    85    87   ar
    10    51    52    1
    11    31    32    1
    12    54    53    2
    13    86    88   ar
    14    87    88   ar
    15    18    21    1
    16    18    19    1
    17    21    22    1
    18    32    35    1
    19    32    33    1
    20    53    52    1
    21    53    59   am
    22    52    55    1
    23    20    19    2
    24    35    36    1
    25    19    23   am
    26    65    63    1
    27    63    60    1
    28    63    64    1
    29    33    34    2
    30    38    36   am
    31    59    60    1
    32    55    56    1
    33    60    61    1
    34    36    37    2
    35    23    24    1
    36    25    26    2
    37    25    24    1
    38    56    57   ar
    39    56    58   ar
    40    24    27    1
    41    61    66   am
    42    61    62    2
    43    66    67    1
    44     1     2    1
    45    27    28    1
    46    50    47    1
    47    39    40    1
    48    67    68    1
    49     2     3    1
    50    30    28   ar
    51    28    29   ar
    52    46    47    1
    53    46    41   am
    54    73    72    2
    55    70    68   am
    56    70    71    1
    57    75    74    1
    58    75    76    1
    59    47    48    1
    60    48    49    2
    61    74    71    1
    62    68    69    2
    63    40    41    1
    64    40    43    1
    65     3     4    2
    66     3     5   am
    67    41    42    2
    68    44    43    1
    69    43    45    1
    70    71    72    1
    71     5     6    1
    72    76    77   ar
    73    76    78   ar
    74     6     7    1
    75     6     9    1
    76     7     8    2
    77     9    10    1
    78    11    10   ar
    79    11    13   ar
    80    10    12   ar
    81    13    15   ar
    82    12    14   ar
    83    15    14   ar
    84    15    16    1
