@<TRIPOS>MOLECULE
tmp/1zl2B00.pdb
 140 132 0 0 0
SMALL
GASTEIGER

@<TRIPOS>ATOM
      1  N          4.7260    0.3690   98.1270 N.3    23  GLY23      -0.1225
      2  CA         4.7980   -0.8230   97.3080 C.3    23  GLY23       0.1811
      3  C          5.1480   -2.0480   98.1260 C.2    23  GLY23       0.2280
      4  O          4.6160   -3.1320   97.8960 O.2    23  GLY23      -0.2866
      5  N          2.2340   -3.9020   96.2780 N.3    65  GLY65      -0.1210
      6  CA         3.0450   -4.9310   95.6640 C.3    65  GLY65       0.1956
      7  C          3.7780   -4.1900   94.5570 C.2    65  GLY65       0.2611
      8  O          3.5350   -2.9980   94.3490 O.2    65  GLY65      -0.2717
      9  N          4.6720   -4.8610   93.8450 N.am   66  ILE66      -0.1979
     10  CA         5.3950   -4.1980   92.7630 C.3    66  ILE66       0.1595
     11  C          4.6060   -4.2360   91.4610 C.2    66  ILE66       0.2287
     12  O          4.0310   -5.2630   91.1080 O.2    66  ILE66      -0.2864
     13  CB         6.7660   -4.8660   92.4890 C.3    66  ILE66       0.0276
     14  CG1        7.7210   -4.6100   93.6550 C.3    66  ILE66       0.0022
     15  CG2        7.3660   -4.3150   91.1950 C.3    66  ILE66       0.0022
     16  CD1        9.0380   -5.3500   93.5270 C.3    66  ILE66       0.0001
     17  N          0.8430    7.5800   96.9250 N.3    88  ARG88      -0.1245
     18  CA         1.8520    6.5390   96.8140 C.3    88  ARG88       0.1563
     19  C          3.1830    7.0510   97.3390 C.2    88  ARG88       0.2260
     20  O          3.5800    8.1760   97.0530 O.2    88  ARG88      -0.2867
     21  CB         2.0290    6.0730   95.3620 C.3    88  ARG88       0.0307
     22  CG         3.2480    5.1560   95.1770 C.3    88  ARG88       0.0489
     23  CD         3.2910    4.4940   93.8020 C.3    88  ARG88       0.2205
     24  NE         4.6700    4.3060   93.3470 N.pl3  88  ARG88      -0.0865
     25  CZ         5.5600    3.5020   93.9260 C.cat  88  ARG88       0.5346
     26  NH1        5.2260    2.7840   94.9930 N.pl3  88  ARG88       0.1354
     27  NH2        6.7980    3.4410   93.4530 N.pl3  88  ARG88       0.1354
     28  N         10.0960    3.9470   96.3730 N.3    91  THR91      -0.1203
     29  CA        11.5300    4.1210   96.2270 C.3    91  THR91       0.1994
     30  C         11.7650    4.2960   94.7350 C.2    91  THR91       0.2619
     31  O         10.9570    3.8480   93.9120 O.2    91  THR91      -0.2717
     32  CB        12.3110    2.9040   96.7720 C.3    91  THR91       0.1784
     33  OG1       11.8380    1.7040   96.1530 O.3    91  THR91      -0.2211
     34  CG2       12.1280    2.8000   98.2800 C.3    91  THR91       0.0376
     35  N         12.8690    4.9310   94.3720 N.am   92  THR92      -0.1938
     36  CA        13.1010    5.1960   92.9660 C.3    92  THR92       0.2028
     37  C         14.5650    5.3170   92.5660 C.2    92  THR92       0.2642
     38  O         15.4340    5.5770   93.3990 O.2    92  THR92      -0.2714
     39  CB        12.3710    6.5040   92.5820 C.3    92  THR92       0.1808
     40  OG1       12.5070    6.7490   91.1810 O.3    92  THR92      -0.2208
     41  CG2       12.9590    7.6830   93.3540 C.3    92  THR92       0.0379
     42  N         14.8190    5.1220   91.2770 N.am   93  GLY93      -0.1954
     43  CA        16.1610    5.2600   90.7470 C.3    93  GLY93       0.1869
     44  C         16.2180    6.5740   89.9840 C.2    93  GLY93       0.2309
     45  O         15.4510    6.7800   89.0410 O.2    93  GLY93      -0.2863
     46  N         11.6510   -3.9160   85.8940 N.3   159  PHE159     -0.1241
     47  CA        12.7160   -3.3100   86.6750 C.3   159  PHE159      0.1605
     48  C         13.9750   -3.3050   85.8180 C.2   159  PHE159      0.2264
     49  O         14.8070   -2.3950   85.9070 O.2   159  PHE159     -0.2867
     50  CB        12.9520   -4.1260   87.9510 C.3   159  PHE159      0.0534
     51  CG        14.0580   -3.5940   88.8190 C.ar  159  PHE159     -0.0203
     52  CD1       15.3730   -4.0030   88.6270 C.ar  159  PHE159     -0.0042
     53  CD2       13.7780   -2.6970   89.8450 C.ar  159  PHE159     -0.0042
     54  CE1       16.3950   -3.5300   89.4500 C.ar  159  PHE159     -0.0003
     55  CE2       14.7890   -2.2180   90.6720 C.ar  159  PHE159     -0.0003
     56  CZ        16.1010   -2.6370   90.4760 C.ar  159  PHE159     -0.0000
     57  N         13.8840   -0.2450   82.1500 N.3   163  GLN163     -0.1245
     58  CA        14.6120    0.8560   82.7760 C.3   163  GLN163      0.1566
     59  C         16.0330    0.8210   82.2320 C.2   163  GLN163      0.2260
     60  O         16.9660    1.3810   82.8100 O.2   163  GLN163     -0.2867
     61  CB        14.6040    0.6990   84.2970 C.3   163  GLN163      0.0367
     62  CG        13.1970    0.7930   84.8870 C.3   163  GLN163      0.0905
     63  CD        13.1940    0.8220   86.4030 C.2   163  GLN163      0.2608
     64  OE1       14.0960    1.3840   87.0230 O.2   163  GLN163     -0.2717
     65  NE2       12.1650    0.2370   87.0070 N.am  163  GLN163     -0.0878
     66  N         18.3520   -1.5370   82.0150 N.3   165  ARG165     -0.1245
     67  CA        19.4120   -2.1160   82.8360 C.3   165  ARG165      0.1563
     68  C         19.9920   -3.2590   81.9960 C.2   165  ARG165      0.2260
     69  O         19.2440   -4.0790   81.4560 O.2   165  ARG165     -0.2867
     70  CB        18.8500   -2.6550   84.1570 C.3   165  ARG165      0.0307
     71  CG        18.5790   -1.5770   85.2110 C.3   165  ARG165      0.0489
     72  CD        18.2060   -2.1940   86.5550 C.3   165  ARG165      0.2205
     73  NE        18.3250   -1.2290   87.6480 N.pl3 165  ARG165     -0.0865
     74  CZ        17.3210   -0.5310   88.1720 C.cat 165  ARG165      0.5346
     75  NH1       16.0790   -0.6770   87.7170 N.pl3 165  ARG165      0.1354
     76  NH2       17.5650    0.3290   89.1530 N.pl3 165  ARG165      0.1354
     77  N         12.9370    6.7220   87.6480 N.3   192  TYR192     -0.1227
     78  CA        12.2450    5.5150   87.2490 C.3   192  TYR192      0.1736
     79  C         11.6030    4.8720   88.4730 C.2   192  TYR192      0.2595
     80  O         12.1560    4.9130   89.5670 O.2   192  TYR192     -0.2718
     81  CB        13.2290    4.4520   86.7340 C.3   192  TYR192      0.0548
     82  CG        13.6810    4.5200   85.2960 C.ar  192  TYR192     -0.0200
     83  CD1       12.7620    4.4880   84.2470 C.ar  192  TYR192     -0.0009
     84  CD2       15.0440    4.5150   84.9820 C.ar  192  TYR192     -0.0009
     85  CE1       13.1870    4.4400   82.9190 C.ar  192  TYR192      0.0417
     86  CE2       15.4820    4.4650   83.6570 C.ar  192  TYR192      0.0417
     87  CZ        14.5460    4.4260   82.6320 C.ar  192  TYR192      0.1957
     88  OH        14.9790    4.3670   81.3280 O.3   192  TYR192     -0.2866
     89  N         10.4180    4.3110   88.2830 N.am  193  GLU193     -0.1965
     90  CA         9.7770    3.4850   89.2990 C.3   193  GLU193      0.1733
     91  C          8.7860    2.6510   88.5060 C.2   193  GLU193      0.2616
     92  O          8.8000    2.7150   87.2680 O.2   193  GLU193     -0.2715
     93  CB         9.1660    4.2720   90.4710 C.3   193  GLU193      0.0429
     94  CG         8.2870    5.4060   90.0960 C.3   193  GLU193      0.1163
     95  CD         6.9270    4.9250   89.7240 C.2   193  GLU193      0.3649
     96  OE1        6.2120    4.4240   90.6200 O.co2 193  GLU193     -0.2457
     97  OE2        6.5860    5.0340   88.5360 O.co2 193  GLU193     -0.2457
     98  N          7.9200    1.8900   89.1580 N.am  194  MET194     -0.1963
     99  CA         7.0540    0.9900   88.4070 C.3   194  MET194      0.1736
    100  C          5.5530    1.0070   88.6570 C.2   194  MET194      0.2616
    101  O          4.8390    0.1710   88.1060 O.2   194  MET194     -0.2715
    102  CB         7.5600   -0.4420   88.6180 C.3   194  MET194      0.0427
    103  CG         9.0190   -0.6590   88.2120 C.3   194  MET194      0.0599
    104  SD         9.6860   -2.2630   88.7220 S.3   194  MET194     -0.1393
    105  CE         8.6620   -3.3780   87.7670 C.3   194  MET194      0.0692
    106  N          5.0650    1.9490   89.4530 N.am  195  GLU195     -0.1977
    107  CA         3.6360    1.9700   89.7610 C.3   195  GLU195      0.1602
    108  C          2.8670    3.2520   89.4600 C.2   195  GLU195      0.2287
    109  O          1.6430    3.2110   89.3190 O.2   195  GLU195     -0.2864
    110  CB         3.4320    1.6220   91.2380 C.3   195  GLU195      0.0415
    111  CG         3.9600    0.2440   91.6630 C.3   195  GLU195      0.1163
    112  CD         5.4820    0.1540   91.6960 C.2   195  GLU195      0.3649
    113  OE1        6.1550    1.2070   91.7600 O.co2 195  GLU195     -0.2457
    114  OE2        6.0080   -0.9790   91.6720 O.co2 195  GLU195     -0.2457
    115  N         16.9410    5.7310   95.8580 N.3   217  ILE217     -0.1231
    116  CA        17.7990    4.7090   96.4620 C.3   217  ILE217      0.1692
    117  C         18.9940    4.3710   95.5650 C.2   217  ILE217      0.2591
    118  O         19.8920    3.6310   95.9620 O.2   217  ILE217     -0.2718
    119  CB        17.0140    3.4110   96.7560 C.3   217  ILE217      0.0266
    120  CG1       16.5170    2.7870   95.4520 C.3   217  ILE217      0.0019
    121  CG2       15.8540    3.7160   97.6910 C.3   217  ILE217      0.0020
    122  CD1       16.0060    1.3670   95.6150 C.3   217  ILE217      0.0001
    123  N         18.9970    4.9130   94.3510 N.am  218  VAL218     -0.1980
    124  CA        20.0950    4.6730   93.4200 C.3   218  VAL218      0.1595
    125  C         20.0960    5.7220   92.3150 C.2   218  VAL218      0.2287
    126  O         19.0380    6.1990   91.9000 O.2   218  VAL218     -0.2864
    127  CB        19.9960    3.2640   92.7650 C.3   218  VAL218      0.0276
    128  CG1       18.7820    3.1830   91.8430 C.3   218  VAL218      0.0022
    129  CG2       21.2710    2.9590   91.9870 C.3   218  VAL218      0.0022
    130  N         21.0290    6.1140   88.5910 N.3   220  ARG220     -0.1245
    131  CA        21.3340    5.3610   87.3840 C.3   220  ARG220      0.1563
    132  C         22.4170    5.9260   86.4720 C.2   220  ARG220      0.2260
    133  O         22.8970    5.2260   85.5770 O.2   220  ARG220     -0.2867
    134  CB        20.0400    5.1400   86.5950 C.3   220  ARG220      0.0307
    135  CG        19.0210    4.2700   87.3280 C.3   220  ARG220      0.0489
    136  CD        19.5410    2.8420   87.4780 C.3   220  ARG220      0.2205
    137  NE        19.9410    2.2940   86.1820 N.pl3 220  ARG220     -0.0865
    138  CZ        19.0860    1.9550   85.2190 C.cat 220  ARG220      0.5346
    139  NH1       17.7780    2.0970   85.4070 N.pl3 220  ARG220      0.1354
    140  NH2       19.5360    1.5020   84.0590 N.pl3 220  ARG220      0.1354
@<TRIPOS>BOND
     1    88    87    1
     2    69    68    2
     3    68    67    1
     4    66    67    1
     5    57    58    1
     6    59    58    1
     7    59    60    2
     8    87    85   ar
     9    87    86   ar
    10    58    61    1
    11    67    70    1
    12    85    83   ar
    13    86    84   ar
    14   140   138    1
    15    70    71    1
    16    83    82   ar
    17    61    62    1
    18    62    63    1
    19    84    82   ar
    20    71    72    1
    21   138   139    1
    22   138   137    2
    23    82    81    1
    24   133   132    2
    25    48    49    2
    26    48    47    1
    27    46    47    1
    28   137   136    1
    29    63    65   am
    30    63    64    2
    31   132   131    1
    32    72    73    1
    33   134   135    1
    34   134   131    1
    35    47    50    1
    36    81    78    1
    37    78    77    1
    38    78    79    1
    39    92    91    2
    40   135   136    1
    41   131   130    1
    42    73    74    2
    43    75    74    1
    44   105   104    1
    45    50    51    1
    46   101   100    2
    47    74    76    1
    48   103   102    1
    49   103   104    1
    50    89    79   am
    51    89    90    1
    52    99   102    1
    53    99   100    1
    54    99    98    1
    55    79    80    2
    56    91    98   am
    57    91    90    1
    58    97    95   ar
    59    52    51   ar
    60    52    54   ar
    61   100   106   am
    62    51    53   ar
    63    45    44    2
    64    90    93    1
    65   109   108    2
    66    54    56   ar
    67   106   107    1
    68   108   107    1
    69    95    94    1
    70    95    96   ar
    71   107   110    1
    72    53    55   ar
    73    44    43    1
    74    94    93    1
    75    56    55   ar
    76    43    42    1
    77    12    11    2
    78    40    39    1
    79    15    13    1
    80   110   111    1
    81    42    37   am
    82    11    10    1
    83   111   112    1
    84   114   112   ar
    85   112   113   ar
    86   128   127    1
    87   126   125    2
    88   129   127    1
    89   125   124    1
    90    13    10    1
    91    13    14    1
    92    37    36    1
    93    37    38    2
    94    39    36    1
    95    39    41    1
    96    10     9    1
    97   127   124    1
    98    36    35    1
    99    24    23    1
   100    24    25    2
   101   124   123    1
   102    27    25    1
   103    16    14    1
   104    23    22    1
   105     9     7   am
   106    31    30    2
   107    25    26    1
   108     8     7    2
   109   123   117   am
   110    35    30   am
   111     7     6    1
   112    30    29    1
   113    22    21    1
   114    21    18    1
   115   120   122    1
   116   120   119    1
   117   117   118    2
   118   117   116    1
   119     6     5    1
   120   115   116    1
   121    33    32    1
   122    29    28    1
   123    29    32    1
   124   116   119    1
   125   119   121    1
   126    32    34    1
   127    18    17    1
   128    18    19    1
   129    20    19    2
   130     2     3    1
   131     2     1    1
   132     4     3    2
