@<TRIPOS>MOLECULE
tmp/1zl9A00.pdb
 126 124 0 0 0
SMALL
GASTEIGER

@<TRIPOS>ATOM
      1  N         10.8400    9.6250    3.9130 N.3     8  TYR8       -0.1227
      2  CA         9.8180   10.4490    4.5280 C.3     8  TYR8        0.1736
      3  C          8.5930   10.4450    3.6140 C.2     8  TYR8        0.2595
      4  O          8.6260    9.8080    2.5940 O.2     8  TYR8       -0.2718
      5  CB        10.3700   11.8740    4.7800 C.3     8  TYR8        0.0548
      6  CG         9.4910   12.7840    5.6000 C.ar    8  TYR8       -0.0200
      7  CD1        9.1430   12.4640    6.8810 C.ar    8  TYR8       -0.0009
      8  CD2        8.9360   13.9900    5.0580 C.ar    8  TYR8       -0.0009
      9  CE1        8.3310   13.2970    7.6310 C.ar    8  TYR8        0.0417
     10  CE2        8.1140   14.7900    5.7980 C.ar    8  TYR8        0.0417
     11  CZ         7.8130   14.4640    7.0810 C.ar    8  TYR8        0.1957
     12  OH         6.9810   15.2960    7.8400 O.3     8  TYR8       -0.2866
     13  N          7.5080   11.0690    4.0430 N.am    9  PHE9       -0.1976
     14  CA         6.3230   11.2900    3.2050 C.3     9  PHE9        0.1639
     15  C          6.5890   12.2660    2.0450 C.2     9  PHE9        0.2290
     16  O          7.6490   12.9350    1.9850 O.2     9  PHE9       -0.2864
     17  CB         5.1640   11.7410    4.0710 C.3     9  PHE9        0.0560
     18  CG         4.7990   10.7210    5.0890 C.ar    9  PHE9       -0.0200
     19  CD1        4.2620    9.5040    4.6830 C.ar    9  PHE9       -0.0042
     20  CD2        5.0810   10.9260    6.4410 C.ar    9  PHE9       -0.0042
     21  CE1        3.9620    8.4970    5.6400 C.ar    9  PHE9       -0.0003
     22  CE2        4.7950    9.9420    7.3740 C.ar    9  PHE9       -0.0003
     23  CZ         4.2370    8.7480    6.9980 C.ar    9  PHE9       -0.0000
     24  N          8.8910   17.4280    8.2310 N.3    14  ALA14      -0.1245
     25  CA        10.0650   17.2270    9.0850 C.3    14  ALA14       0.1562
     26  C         11.2960   16.6760    8.3250 C.2    14  ALA14       0.2260
     27  O         12.4140   16.7230    8.8430 O.2    14  ALA14      -0.2867
     28  CB         9.6590   16.2880   10.2120 C.3    14  ALA14       0.0290
     29  N          2.9210    2.8440    3.2100 N.3    39  TRP39      -0.1241
     30  CA         3.2600    3.2050    4.6090 C.3    39  TRP39       0.1605
     31  C          2.8960    2.0740    5.6410 C.2    39  TRP39       0.2264
     32  O          3.8330    1.3970    6.1690 O.2    39  TRP39      -0.2867
     33  CB         2.7360    4.6390    5.0130 C.3    39  TRP39       0.0550
     34  CG         2.9780    4.9480    6.4760 C.ar   39  TRP39       0.0003
     35  CD1        2.0630    5.3550    7.4190 C.ar   39  TRP39       0.0946
     36  CD2        4.1980    4.7950    7.1590 C.ar   39  TRP39       0.0152
     37  NE1        2.6590    5.4470    8.6530 N.ar   39  TRP39      -0.2442
     38  CE2        3.9700    5.0960    8.5200 C.ar   39  TRP39       0.0810
     39  CE3        5.4670    4.4030    6.7760 C.ar   39  TRP39       0.0012
     40  CZ2        4.9590    5.0240    9.4680 C.ar   39  TRP39       0.0191
     41  CZ3        6.4470    4.3330    7.7330 C.ar   39  TRP39       0.0001
     42  CH2        6.1870    4.6690    9.0580 C.ar   39  TRP39       0.0015
     43  N          5.4580    0.3240    7.8700 N.3    43  LYS43      -0.1245
     44  CA         5.3000    0.4050    9.2970 C.3    43  LYS43       0.1561
     45  C          5.2630   -0.9790    9.9590 C.2    43  LYS43       0.2260
     46  O          5.9820   -1.2020   10.9660 O.2    43  LYS43      -0.2867
     47  CB         4.0580    1.1850    9.6680 C.3    43  LYS43       0.0271
     48  CG         4.1120    1.6040   11.1100 C.3    43  LYS43       0.0035
     49  CD         2.8180    2.1770   11.6020 C.3    43  LYS43       0.0206
     50  CE         2.9140    2.5100   13.0790 C.3    43  LYS43       0.1093
     51  NZ         2.9920    3.9570   13.3170 N.3    43  LYS43      -0.1314
     52  N          9.0060    3.4240   14.5230 N.3    51  GLY51      -0.1210
     53  CA         7.7180    3.2790   13.8410 C.3    51  GLY51       0.1956
     54  C          7.2600    4.5280   13.1020 C.2    51  GLY51       0.2612
     55  O          6.0690    4.6400   12.7370 O.2    51  GLY51      -0.2717
     56  N          8.1360    5.5140   12.9460 N.am   52  GLN52      -0.1965
     57  CA         7.7010    6.8000   12.3790 C.3    52  GLN52       0.1733
     58  C          8.7400    7.3300   11.3740 C.2    52  GLN52       0.2616
     59  O          9.8850    6.8530   11.3890 O.2    52  GLN52      -0.2715
     60  CB         7.4830    7.8490   13.4940 C.3    52  GLN52       0.0408
     61  CG         6.2790    7.4560   14.3850 C.3    52  GLN52       0.0908
     62  CD         5.7840    8.5770   15.2030 C.2    52  GLN52       0.2608
     63  OE1        4.6350    9.0360   15.0200 O.2    52  GLN52      -0.2717
     64  NE2        6.6250    9.0540   16.1130 N.am   52  GLN52      -0.0878
     65  N          8.3370    8.2990   10.5290 N.am   53  LEU53      -0.1964
     66  CA         9.2380    8.9670    9.5900 C.3    53  LEU53       0.1713
     67  C          9.4670   10.4030   10.1040 C.2    53  LEU53       0.2458
     68  O          8.6330   10.9420   10.8250 O.2    53  LEU53      -0.2730
     69  CB         8.5900    9.0320    8.1760 C.3    53  LEU53       0.0310
     70  CG         8.0830    7.7050    7.6170 C.3    53  LEU53       0.0022
     71  CD1        7.5700    7.8200    6.1360 C.3    53  LEU53       0.0001
     72  CD2        9.2200    6.6740    7.7770 C.3    53  LEU53       0.0001
     73  N         10.5740   11.0320    9.7400 N.am   54  PRO54      -0.2727
     74  CA        11.6110   10.4590    8.8650 C.3    54  PRO54       0.1402
     75  C         12.5950    9.4980    9.5010 C.2    54  PRO54       0.2269
     76  O         12.7110    9.4220   10.7310 O.2    54  PRO54      -0.2865
     77  CB        12.3860   11.7240    8.4260 C.3    54  PRO54       0.0296
     78  CG        12.2930   12.6150    9.6380 C.3    54  PRO54       0.0237
     79  CD        10.9300   12.3950   10.1690 C.3    54  PRO54       0.0939
     80  N         14.4110   10.2060   13.9840 N.3    65  GLN65      -0.1231
     81  CA        14.1940   11.4990   14.6650 C.3    65  GLN65       0.1698
     82  C         14.7200   12.7110   13.8680 C.2    65  GLN65       0.2592
     83  O         15.9200   12.8480   13.6710 O.2    65  GLN65      -0.2718
     84  CB        14.7150   11.4840   16.0910 C.3    65  GLN65       0.0381
     85  CG        13.7500   10.6600   17.0220 C.3    65  GLN65       0.0905
     86  CD        12.5170   11.4080   17.4800 C.2    65  GLN65       0.2608
     87  OE1       11.6000   10.8190   18.1110 O.2    65  GLN65      -0.2717
     88  NE2       12.4750   12.6700   17.2160 N.am   65  GLN65      -0.0878
     89  N         13.7940   13.5360   13.3920 N.am   66  SER66      -0.1952
     90  CA        14.0940   14.6190   12.4790 C.3    66  SER66       0.1924
     91  C         15.2620   15.4920   12.8860 C.2    66  SER66       0.2314
     92  O         16.0940   15.7690   12.0140 O.2    66  SER66      -0.2863
     93  CB        12.8380   15.4850   12.2240 C.3    66  SER66       0.2116
     94  OG        12.3820   16.1430   13.3640 O.3    66  SER66      -0.2180
     95  N         11.0100   23.0210   18.4870 N.3    98  LYS98      -0.1245
     96  CA        10.1670   21.8770   18.8390 C.3    98  LYS98       0.1561
     97  C          9.0680   22.2150   19.8110 C.2    98  LYS98       0.2260
     98  O          7.9730   21.7170   19.6500 O.2    98  LYS98      -0.2867
     99  CB        10.9730   20.7620   19.5110 C.3    98  LYS98       0.0271
    100  CG        11.3180   19.6160   18.7380 C.3    98  LYS98       0.0035
    101  CD        11.6870   18.4190   19.6790 C.3    98  LYS98       0.0206
    102  CE        12.6560   17.4370   18.9970 C.3    98  LYS98       0.1093
    103  NZ        12.0020   16.5810   17.9930 N.3    98  LYS98      -0.1314
    104  N         -2.4710   20.6410   12.6600 N.3   109  TYR109     -0.1241
    105  CA        -3.2350   19.4280   12.4080 C.3   109  TYR109      0.1605
    106  C         -4.6260   19.6600   11.8580 C.2   109  TYR109      0.2264
    107  O         -5.1190   18.8610   11.0340 O.2   109  TYR109     -0.2867
    108  CB        -3.3490   18.6440   13.6870 C.3   109  TYR109      0.0534
    109  CG        -2.2980   17.6280   13.7910 C.ar  109  TYR109     -0.0201
    110  CD1       -0.9860   17.9260   13.5280 C.ar  109  TYR109     -0.0009
    111  CD2       -2.6160   16.3380   14.2070 C.ar  109  TYR109     -0.0009
    112  CE1        0.0110   16.9620   13.6360 C.ar  109  TYR109      0.0417
    113  CE2       -1.6340   15.3660   14.3180 C.ar  109  TYR109      0.0417
    114  CZ        -0.3380   15.6840   14.0170 C.ar  109  TYR109      0.1957
    115  OH         0.6120   14.7080   14.1330 O.3   109  TYR109     -0.2866
    116  N         -5.8900   16.5520    9.8480 N.3   114  PHE114     -0.1241
    117  CA        -5.6310   15.4540   10.7620 C.3   114  PHE114      0.1605
    118  C         -6.3140   15.6190   12.0880 C.2   114  PHE114      0.2264
    119  O         -6.4460   14.6750   12.8270 O.2   114  PHE114     -0.2867
    120  CB        -4.1320   15.2980   11.0520 C.3   114  PHE114      0.0534
    121  CG        -3.2900   15.0280    9.8200 C.ar  114  PHE114     -0.0203
    122  CD1       -3.8070   14.3580    8.7330 C.ar  114  PHE114     -0.0042
    123  CD2       -1.9750   15.4380    9.7770 C.ar  114  PHE114     -0.0042
    124  CE1       -3.0010   14.0850    7.5800 C.ar  114  PHE114     -0.0003
    125  CE2       -1.1780   15.1980    8.6370 C.ar  114  PHE114     -0.0003
    126  CZ        -1.6890   14.5180    7.5470 C.ar  114  PHE114     -0.0000
@<TRIPOS>BOND
     1    16    15    2
     2    15    14    1
     3     4     3    2
     4    14    13    1
     5    14    17    1
     6    29    30    1
     7     3    13   am
     8     3     2    1
     9     1     2    1
    10    17    18    1
    11     2     5    1
    12    30    33    1
    13    30    31    1
    14    19    18   ar
    15    19    21   ar
    16     5     6    1
    17    33    34    1
    18     8     6   ar
    19     8    10   ar
    20    18    20   ar
    21     6     7   ar
    22    21    23   ar
    23    31    32    2
    24    10    11   ar
    25    71    70    1
    26    20    22   ar
    27    34    36   ar
    28    34    35   ar
    29    39    36   ar
    30    39    41   ar
    31     7     9   ar
    32    23    22   ar
    33    11     9   ar
    34    11    12    1
    35    36    38   ar
    36    35    37   ar
    37   126   124   ar
    38   126   125   ar
    39   124   122   ar
    40    70    72    1
    41    70    69    1
    42    41    42   ar
    43    43    44    1
    44    69    66    1
    45    24    25    1
    46    26    27    2
    47    26    25    1
    48    77    74    1
    49    77    78    1
    50    38    37   ar
    51    38    40   ar
    52   125   123   ar
    53   122   121   ar
    54    74    75    1
    55    74    73    1
    56    42    40   ar
    57    25    28    1
    58    44    47    1
    59    44    45    1
    60    75    76    2
    61    66    67    1
    62    66    65    1
    63    78    79    1
    64    47    48    1
    65    73    67   am
    66    73    79    1
    67   123   121   ar
    68   121   120    1
    69   116   117    1
    70    45    46    2
    71    67    68    2
    72    65    58   am
    73   117   120    1
    74   117   118    1
    75   107   106    2
    76    48    49    1
    77    58    59    2
    78    58    57    1
    79    49    50    1
    80   106   105    1
    81    92    91    2
    82   118   119    2
    83    93    90    1
    84    93    94    1
    85    57    56    1
    86    57    60    1
    87   105   104    1
    88   105   108    1
    89    90    91    1
    90    90    89    1
    91    55    54    2
    92    56    54   am
    93    50    51    1
    94    54    53    1
    95    89    82   am
    96    60    61    1
    97   110   112   ar
    98   110   109   ar
    99   112   114   ar
   100    83    82    2
   101   108   109    1
   102   109   111   ar
   103    53    52    1
   104    82    81    1
   105    80    81    1
   106   114   115    1
   107   114   113   ar
   108   111   113   ar
   109    61    62    1
   110    81    84    1
   111    63    62    2
   112    62    64   am
   113    84    85    1
   114    85    86    1
   115    88    86   am
   116    86    87    2
   117   103   102    1
   118    95    96    1
   119   100    99    1
   120   100   101    1
   121    96    99    1
   122    96    97    1
   123   102   101    1
   124    98    97    2
