@<TRIPOS>MOLECULE
tmp/1zlaJ00.pdb
 92 87 0 0 0
SMALL
GASTEIGER

@<TRIPOS>ATOM
      1  N        -39.1260  -14.3790  -27.8480 N.3    12  VAL12      -0.1245
      2  CA       -38.2590  -13.6190  -28.7320 C.3    12  VAL12       0.1561
      3  C        -39.0460  -13.1920  -29.9600 C.2    12  VAL12       0.2260
      4  O        -38.8290  -12.1060  -30.4970 O.2    12  VAL12      -0.2867
      5  CB       -37.0220  -14.4410  -29.1360 C.3    12  VAL12       0.0252
      6  CG1      -36.1470  -13.6450  -30.1080 C.3    12  VAL12       0.0019
      7  CG2      -36.2270  -14.8020  -27.8890 C.3    12  VAL12       0.0019
      8  N        -40.8240  -10.0540  -29.4710 N.3    15  GLN15      -0.1231
      9  CA       -39.9090   -8.9160  -29.3520 C.3    15  GLN15       0.1698
     10  C        -39.6190   -8.3230  -30.7210 C.2    15  GLN15       0.2592
     11  O        -39.3280   -7.1370  -30.8480 O.2    15  GLN15      -0.2718
     12  CB       -38.5780   -9.3330  -28.7400 C.3    15  GLN15       0.0381
     13  CG       -38.5120   -9.3470  -27.2350 C.3    15  GLN15       0.0905
     14  CD       -37.0800   -9.5430  -26.7470 C.2    15  GLN15       0.2608
     15  OE1      -36.4470  -10.5640  -27.0330 O.2    15  GLN15      -0.2717
     16  NE2      -36.5600   -8.5590  -26.0210 N.am   15  GLN15      -0.0878
     17  N        -39.6920   -9.1600  -31.7470 N.am   16  VAL16      -0.1966
     18  CA       -39.4080   -8.7080  -33.0920 C.3    16  VAL16       0.1727
     19  C        -40.6580   -8.4180  -33.9060 C.2    16  VAL16       0.2616
     20  O        -40.7400   -7.3920  -34.5730 O.2    16  VAL16      -0.2715
     21  CB       -38.5480   -9.7350  -33.8310 C.3    16  VAL16       0.0290
     22  CG1      -38.2750   -9.2530  -35.2360 C.3    16  VAL16       0.0023
     23  CG2      -37.2440   -9.9410  -33.0920 C.3    16  VAL16       0.0023
     24  N        -41.6250   -9.3210  -33.8640 N.am   17  HIS17      -0.1973
     25  CA       -42.8680   -9.1280  -34.5990 C.3    17  HIS17       0.1656
     26  C        -43.9980   -9.4060  -33.6220 C.2    17  HIS17       0.2291
     27  O        -44.5760  -10.4940  -33.6050 O.2    17  HIS17      -0.2864
     28  CB       -42.9170  -10.0780  -35.7980 C.3    17  HIS17       0.0771
     29  CG       -41.9370   -9.7280  -36.8740 C.ar   17  HIS17       0.0820
     30  ND1      -42.0360   -8.5740  -37.6210 N.ar   17  HIS17      -0.2267
     31  CD2      -40.8210  -10.3590  -37.3060 C.ar   17  HIS17       0.1154
     32  CE1      -41.0220   -8.5100  -38.4660 C.ar   17  HIS17       0.1986
     33  NE2      -40.2690   -9.5810  -38.2950 N.ar   17  HIS17      -0.2212
     34  N        -20.9390  -11.6110  -40.9990 N.3    73  GLU73      -0.1231
     35  CA       -21.6210  -10.6770  -40.1380 C.3    73  GLU73       0.1699
     36  C        -22.3810  -11.3720  -39.0300 C.2    73  GLU73       0.2592
     37  O        -22.3620  -10.9350  -37.8880 O.2    73  GLU73      -0.2718
     38  CB       -22.5600   -9.8040  -40.9580 C.3    73  GLU73       0.0402
     39  CG       -22.7700   -8.4420  -40.3370 C.3    73  GLU73       0.1161
     40  CD       -21.5400   -7.5440  -40.4340 C.2    73  GLU73       0.3649
     41  OE1      -21.3280   -6.7530  -39.4920 O.co2  73  GLU73      -0.2457
     42  OE2      -20.8030   -7.6100  -41.4470 O.co2  73  GLU73      -0.2457
     43  N        -23.0490  -12.4630  -39.3670 N.am   74  LEU74      -0.1980
     44  CA       -23.8070  -13.2110  -38.3850 C.3    74  LEU74       0.1596
     45  C        -22.9420  -13.4970  -37.1460 C.2    74  LEU74       0.2287
     46  O        -23.4270  -13.4780  -36.0090 O.2    74  LEU74      -0.2864
     47  CB       -24.2850  -14.5070  -39.0320 C.3    74  LEU74       0.0297
     48  CG       -25.6150  -15.1330  -38.6170 C.3    74  LEU74       0.0022
     49  CD1      -26.7040  -14.0790  -38.5420 C.3    74  LEU74       0.0001
     50  CD2      -25.9800  -16.2140  -39.6410 C.3    74  LEU74       0.0001
     51  N        -22.0710   -9.9750  -34.9210 N.3    77  HIS77      -0.1241
     52  CA       -23.1630   -9.6740  -34.0040 C.3    77  HIS77       0.1621
     53  C        -23.2560  -10.6840  -32.8680 C.2    77  HIS77       0.2264
     54  O        -23.5000  -10.3200  -31.7160 O.2    77  HIS77      -0.2867
     55  CB       -24.4830   -9.6460  -34.7710 C.3    77  HIS77       0.0745
     56  CG       -24.6310   -8.4540  -35.6630 C.ar   77  HIS77       0.0817
     57  ND1      -24.9660   -7.2060  -35.1840 N.ar   77  HIS77      -0.2268
     58  CD2      -24.4470   -8.3090  -36.9970 C.ar   77  HIS77       0.1154
     59  CE1      -24.9800   -6.3440  -36.1860 C.ar   77  HIS77       0.1986
     60  NE2      -24.6680   -6.9880  -37.2960 N.ar   77  HIS77      -0.2212
     61  N        -23.0840   -9.7040  -28.7410 N.3    81  GLU81      -0.1245
     62  CA       -24.1950  -10.1240  -27.9010 C.3    81  GLU81       0.1567
     63  C        -23.7700  -11.0180  -26.7500 C.2    81  GLU81       0.2260
     64  O        -24.2220  -10.8450  -25.6130 O.2    81  GLU81      -0.2867
     65  CB       -25.2430  -10.8380  -28.7450 C.3    81  GLU81       0.0388
     66  CG       -26.0450   -9.8860  -29.5970 C.3    81  GLU81       0.1160
     67  CD       -26.5530   -8.6950  -28.7960 C.2    81  GLU81       0.3649
     68  OE1      -26.8860   -8.8900  -27.6010 O.co2  81  GLU81      -0.2457
     69  OE2      -26.6280   -7.5750  -29.3610 O.co2  81  GLU81      -0.2457
     70  N        -21.6180   -9.2910  -24.3790 N.3    84  LYS84      -0.1231
     71  CA       -22.4480   -8.3480  -23.6420 C.3    84  LYS84       0.1693
     72  C        -23.2190   -9.0480  -22.5340 C.2    84  LYS84       0.2591
     73  O        -23.2890   -8.5530  -21.4060 O.2    84  LYS84      -0.2718
     74  CB       -23.4240   -7.6540  -24.5890 C.3    84  LYS84       0.0285
     75  CG       -23.8280   -6.2640  -24.1480 C.3    84  LYS84       0.0035
     76  CD       -24.7940   -5.6440  -25.1290 C.3    84  LYS84       0.0206
     77  CE       -26.1050   -6.4140  -25.1580 C.3    84  LYS84       0.1093
     78  NZ       -26.9930   -5.9200  -26.2490 N.3    84  LYS84      -0.1314
     79  N        -23.7890  -10.2030  -22.8590 N.am   85  ALA85      -0.1980
     80  CA       -24.5530  -10.9780  -21.8960 C.3    85  ALA85       0.1597
     81  C        -23.6720  -11.4050  -20.7290 C.2    85  ALA85       0.2287
     82  O        -24.1390  -11.5190  -19.6000 O.2    85  ALA85      -0.2864
     83  CB       -25.1400  -12.1950  -22.5700 C.3    85  ALA85       0.0319
     84  N        -22.8220   -7.8560  -18.6560 N.3    88  LYS88      -0.1245
     85  CA       -24.0200   -7.4800  -17.9190 C.3    88  LYS88       0.1561
     86  C        -24.2260   -8.4810  -16.7920 C.2    88  LYS88       0.2260
     87  O        -24.4580   -8.1100  -15.6420 O.2    88  LYS88      -0.2867
     88  CB       -25.2360   -7.4800  -18.8490 C.3    88  LYS88       0.0271
     89  CG       -26.2670   -6.4160  -18.5240 C.3    88  LYS88       0.0035
     90  CD       -27.1860   -6.1360  -19.7150 C.3    88  LYS88       0.0206
     91  CE       -27.9230   -4.7860  -19.5760 C.3    88  LYS88       0.1093
     92  NZ       -28.8060   -4.6470  -18.3640 N.3    88  LYS88      -0.1314
@<TRIPOS>BOND
     1    42    40   ar
     2    34    35    1
     3    38    39    1
     4    38    35    1
     5    40    39    1
     6    40    41   ar
     7    35    36    1
     8    50    48    1
     9    43    36   am
    10    43    44    1
    11    47    48    1
    12    47    44    1
    13    36    37    2
    14    48    49    1
    15    32    33   ar
    16    32    30   ar
    17    44    45    1
    18    33    31   ar
    19    30    29   ar
    20    31    29   ar
    21    60    58   ar
    22    60    59   ar
    23    45    46    2
    24    58    56   ar
    25    29    28    1
    26    59    57   ar
    27    28    25    1
    28    56    57   ar
    29    56    55    1
    30    22    21    1
    31    51    52    1
    32    55    52    1
    33    25    24    1
    34    25    26    1
    35    20    19    2
    36    52    53    1
    37    19    24   am
    38    19    18    1
    39    21    18    1
    40    21    23    1
    41    26    27    2
    42    18    17    1
    43    53    54    2
    44    17    10   am
    45    11    10    2
    46    10     9    1
    47     4     3    2
    48     6     5    1
    49     3     2    1
    50    66    67    1
    51    66    65    1
    52     8     9    1
    53    69    67   ar
    54     9    12    1
    55     5     2    1
    56     5     7    1
    57    67    68   ar
    58    65    62    1
    59    61    62    1
    60    12    13    1
    61     2     1    1
    62    62    63    1
    63    13    14    1
    64    15    14    2
    65    63    64    2
    66    14    16   am
    67    78    77    1
    68    77    76    1
    69    76    75    1
    70    74    75    1
    71    74    71    1
    72    70    71    1
    73    71    72    1
    74    79    72   am
    75    79    80    1
    76    83    80    1
    77    72    73    2
    78    80    81    1
    79    81    82    2
    80    90    91    1
    81    90    89    1
    82    91    92    1
    83    88    89    1
    84    88    85    1
    85    84    85    1
    86    85    86    1
    87    86    87    2
