@<TRIPOS>MOLECULE
tmp/1zlaI00.pdb
 111 104 0 0 0
SMALL
GASTEIGER

@<TRIPOS>ATOM
      1  N        -29.6970  -10.3820  -18.8240 N.3     9  GLY9       -0.1210
      2  CA       -30.6120   -9.6010  -19.6410 C.3     9  GLY9        0.1956
      3  C        -30.9990  -10.3660  -20.8800 C.2     9  GLY9        0.2612
      4  O        -31.0020   -9.8230  -21.9820 O.2     9  GLY9       -0.2717
      5  N        -31.3440  -11.6330  -20.6850 N.am   10  LEU10      -0.1965
      6  CA       -31.7010  -12.5150  -21.7850 C.3    10  LEU10       0.1728
      7  C        -33.0550  -13.1800  -21.6330 C.2    10  LEU10       0.2616
      8  O        -33.5660  -13.3520  -20.5190 O.2    10  LEU10      -0.2715
      9  CB       -30.6450  -13.6120  -21.9170 C.3    10  LEU10       0.0311
     10  CG       -29.1970  -13.1600  -22.0790 C.3    10  LEU10       0.0022
     11  CD1      -28.2900  -14.3750  -22.1610 C.3    10  LEU10       0.0001
     12  CD2      -29.0770  -12.3180  -23.3390 C.3    10  LEU10       0.0001
     13  N        -33.6170  -13.5710  -22.7700 N.am   11  GLN11      -0.1977
     14  CA       -34.8890  -14.2660  -22.8080 C.3    11  GLN11       0.1601
     15  C        -34.6240  -15.7520  -22.5680 C.2    11  GLN11       0.2287
     16  O        -35.3560  -16.4180  -21.8240 O.2    11  GLN11      -0.2864
     17  CB       -35.5450  -14.0810  -24.1700 C.3    11  GLN11       0.0394
     18  CG       -35.9280  -12.6560  -24.4360 C.3    11  GLN11       0.0908
     19  CD       -36.8430  -12.1310  -23.3640 C.2    11  GLN11       0.2608
     20  OE1      -37.9960  -12.5510  -23.2540 O.2    11  GLN11      -0.2717
     21  NE2      -36.3300  -11.2210  -22.5490 N.am   11  GLN11      -0.0878
     22  N        -27.0020  -16.4480  -24.9300 N.3    40  ALA40      -0.1245
     23  CA       -27.1150  -15.2170  -25.6870 C.3    40  ALA40       0.1562
     24  C        -27.0500  -15.5300  -27.1750 C.2    40  ALA40       0.2260
     25  O        -27.9620  -15.1700  -27.9360 O.2    40  ALA40      -0.2867
     26  CB       -25.9990  -14.2780  -25.3080 C.3    40  ALA40       0.0290
     27  N        -30.1510  -17.1480  -28.4670 N.3    43  GLU43      -0.1231
     28  CA       -31.2560  -16.1980  -28.5080 C.3    43  GLU43       0.1699
     29  C        -31.0810  -15.2920  -29.7130 C.2    43  GLU43       0.2592
     30  O        -31.9940  -15.1210  -30.5220 O.2    43  GLU43      -0.2718
     31  CB       -31.2840  -15.3410  -27.2420 C.3    43  GLU43       0.0402
     32  CG       -32.5840  -14.5550  -27.0530 C.3    43  GLU43       0.1161
     33  CD       -32.5160  -13.5840  -25.8900 C.2    43  GLU43       0.3649
     34  OE1      -32.2180  -14.0340  -24.7570 O.co2  43  GLU43      -0.2457
     35  OE2      -32.7590  -12.3720  -26.1090 O.co2  43  GLU43      -0.2457
     36  N        -29.8930  -14.7180  -29.8290 N.am   44  TYR44      -0.1976
     37  CA       -29.5950  -13.8240  -30.9350 C.3    44  TYR44       0.1639
     38  C        -29.8390  -14.4150  -32.3250 C.2    44  TYR44       0.2290
     39  O        -30.4280  -13.7640  -33.1940 O.2    44  TYR44      -0.2864
     40  CB       -28.1540  -13.3230  -30.8400 C.3    44  TYR44       0.0560
     41  CG       -27.7290  -12.7530  -32.1810 C.ar   44  TYR44      -0.0198
     42  CD1      -28.1540  -11.4870  -32.5430 C.ar   44  TYR44      -0.0009
     43  CD2      -26.9870  -13.4900  -33.1010 C.ar   44  TYR44      -0.0009
     44  CE1      -27.8640  -10.9680  -33.7780 C.ar   44  TYR44       0.0417
     45  CE2      -26.6910  -12.9810  -34.3480 C.ar   44  TYR44       0.0417
     46  CZ       -27.1360  -11.7170  -34.6760 C.ar   44  TYR44       0.1957
     47  OH       -26.8410  -11.1850  -35.9070 O.3    44  TYR44      -0.2866
     48  N        -33.5460  -14.7210  -32.8720 N.3    47  ALA47      -0.1231
     49  CA       -34.1760  -13.4490  -33.2020 C.3    47  ALA47       0.1694
     50  C        -33.9470  -13.1600  -34.6660 C.2    47  ALA47       0.2591
     51  O        -34.8670  -12.7840  -35.3960 O.2    47  ALA47      -0.2718
     52  CB       -33.5850  -12.3430  -32.3740 C.3    47  ALA47       0.0304
     53  N        -32.7020  -13.3460  -35.0850 N.am   48  GLU48      -0.1979
     54  CA       -32.2940  -13.1230  -36.4670 C.3    48  GLU48       0.1602
     55  C        -33.1990  -13.8550  -37.4630 C.2    48  GLU48       0.2287
     56  O        -33.6080  -13.2680  -38.4630 O.2    48  GLU48      -0.2864
     57  CB       -30.8520  -13.5830  -36.6360 C.3    48  GLU48       0.0415
     58  CG       -30.1180  -12.9110  -37.7700 C.3    48  GLU48       0.1163
     59  CD       -29.9420  -11.4080  -37.5810 C.2    48  GLU48       0.3649
     60  OE1      -29.1740  -10.9810  -36.6860 O.co2  48  GLU48      -0.2457
     61  OE2      -30.5770  -10.6550  -38.3530 O.co2  48  GLU48      -0.2457
     62  N        -37.0580  -12.7520  -37.1940 N.3    51  GLU51      -0.1231
     63  CA       -37.0120  -11.4510  -37.8300 C.3    51  GLU51       0.1699
     64  C        -37.2890  -11.5910  -39.3300 C.2    51  GLU51       0.2592
     65  O        -38.2620  -11.0490  -39.8510 O.2    51  GLU51      -0.2718
     66  CB       -35.6200  -10.8600  -37.5860 C.3    51  GLU51       0.0402
     67  CG       -35.0680   -9.9530  -38.6700 C.3    51  GLU51       0.1161
     68  CD       -35.5880   -8.5580  -38.5590 C.2    51  GLU51       0.3649
     69  OE1      -34.7670   -7.6290  -38.3910 O.co2  51  GLU51      -0.2457
     70  OE2      -36.8210   -8.3960  -38.6340 O.co2  51  GLU51      -0.2457
     71  N        -36.4400  -12.3430  -40.0180 N.am   52  LEU52      -0.1980
     72  CA       -36.5820  -12.5170  -41.4540 C.3    52  LEU52       0.1596
     73  C        -37.7880  -13.3570  -41.8310 C.2    52  LEU52       0.2287
     74  O        -38.4510  -13.0850  -42.8310 O.2    52  LEU52      -0.2864
     75  CB       -35.3070  -13.1420  -42.0180 C.3    52  LEU52       0.0297
     76  CG       -34.0480  -12.3400  -41.6800 C.3    52  LEU52       0.0022
     77  CD1      -32.7980  -13.1400  -41.9970 C.3    52  LEU52       0.0001
     78  CD2      -34.0660  -11.0410  -42.4590 C.3    52  LEU52       0.0001
     79  N        -40.7290  -11.2670  -41.7130 N.3    55  ASN55      -0.1240
     80  CA       -40.8110  -10.4470  -42.9220 C.3    55  ASN55       0.1653
     81  C        -41.4280  -11.2030  -44.0890 C.2    55  ASN55       0.2266
     82  O        -42.2080  -10.6510  -44.8520 O.2    55  ASN55      -0.2867
     83  CB       -39.4320   -9.9350  -43.3340 C.3    55  ASN55       0.1155
     84  CG       -38.8390   -8.9980  -42.3150 C.2    55  ASN55       0.2627
     85  OD1      -39.5670   -8.3590  -41.5440 O.2    55  ASN55      -0.2716
     86  ND2      -37.5110   -8.8940  -42.3070 N.am   55  ASN55      -0.0877
     87  N        -31.0740  -15.5290  -47.4620 N.3    77  ASP77      -0.1239
     88  CA       -30.0720  -14.7940  -46.6910 C.3    77  ASP77       0.1674
     89  C        -28.6980  -15.4670  -46.7360 C.2    77  ASP77       0.2266
     90  O        -28.4200  -16.3850  -45.9670 O.2    77  ASP77      -0.2867
     91  CB       -30.5520  -14.6820  -45.2470 C.3    77  ASP77       0.1410
     92  CG       -29.5600  -13.9770  -44.3520 C.2    77  ASP77       0.3668
     93  OD1      -29.4340  -12.7380  -44.4600 O.co2  77  ASP77      -0.2456
     94  OD2      -28.9100  -14.6720  -43.5420 O.co2  77  ASP77      -0.2456
     95  N        -25.9190  -15.6200  -45.4130 N.3    79  GLU79      -0.1231
     96  CA       -25.2420  -16.1320  -44.2330 C.3    79  GLU79       0.1699
     97  C        -26.0370  -17.2080  -43.5120 C.2    79  GLU79       0.2592
     98  O        -25.5000  -18.2580  -43.1860 O.2    79  GLU79      -0.2718
     99  CB       -24.9200  -14.9740  -43.3010 C.3    79  GLU79       0.0402
    100  CG       -24.0450  -13.9180  -43.9260 C.3    79  GLU79       0.1161
    101  CD       -23.5650  -12.8740  -42.9380 C.2    79  GLU79       0.3649
    102  OE1      -24.2680  -12.6560  -41.9250 O.co2  79  GLU79      -0.2457
    103  OE2      -22.4960  -12.2690  -43.1850 O.co2  79  GLU79      -0.2457
    104  N        -27.3100  -16.9610  -43.2540 N.am   80  LEU80      -0.1980
    105  CA       -28.1210  -17.9830  -42.5900 C.3    80  LEU80       0.1596
    106  C        -28.1540  -19.2260  -43.4910 C.2    80  LEU80       0.2287
    107  O        -28.1190  -20.3580  -43.0110 O.2    80  LEU80      -0.2864
    108  CB       -29.5590  -17.4650  -42.3360 C.3    80  LEU80       0.0297
    109  CG       -29.8170  -16.6770  -41.0390 C.3    80  LEU80       0.0022
    110  CD1      -31.2710  -16.2690  -40.9650 C.3    80  LEU80       0.0001
    111  CD2      -29.4410  -17.5330  -39.8330 C.3    80  LEU80       0.0001
@<TRIPOS>BOND
     1    87    88    1
     2    89    88    1
     3    89    90    2
     4    88    91    1
     5    95    96    1
     6    91    92    1
     7    82    81    2
     8    93    92   ar
     9    92    94   ar
    10    96    97    1
    11    96    99    1
    12    81    80    1
    13   100    99    1
    14   100   101    1
    15    97   104   am
    16    97    98    2
    17   106   107    2
    18   106   105    1
    19    83    80    1
    20    83    84    1
    21   104   105    1
    22   103   101   ar
    23   101   102   ar
    24    80    79    1
    25    74    73    2
    26   105   108    1
    27    78    76    1
    28   108   109    1
    29    84    86   am
    30    84    85    2
    31    75    76    1
    32    75    72    1
    33    77    76    1
    34    73    72    1
    35    72    71    1
    36   109   110    1
    37   109   111    1
    38    71    64   am
    39    65    64    2
    40    64    63    1
    41    67    68    1
    42    67    66    1
    43    70    68   ar
    44    68    69   ar
    45    56    55    2
    46    61    59   ar
    47    63    66    1
    48    63    62    1
    49    58    59    1
    50    58    57    1
    51    59    60   ar
    52    55    54    1
    53    57    54    1
    54    54    53    1
    55    47    46    1
    56    51    50    2
    57    53    50   am
    58    46    45   ar
    59    46    44   ar
    60    50    49    1
    61    45    43   ar
    62    44    42   ar
    63    49    48    1
    64    49    52    1
    65    39    38    2
    66    43    41   ar
    67    42    41   ar
    68    38    37    1
    69    41    40    1
    70    37    40    1
    71    37    36    1
    72    30    29    2
    73    36    29   am
    74    29    28    1
    75    28    27    1
    76    28    31    1
    77    25    24    2
    78    31    32    1
    79    24    23    1
    80    32    33    1
    81    35    33   ar
    82    33    34   ar
    83    23    26    1
    84    23    22    1
    85    18    17    1
    86    18    19    1
    87    17    14    1
    88    19    20    2
    89    19    21   am
    90    12    10    1
    91    14    13    1
    92    14    15    1
    93    13     7   am
    94    15    16    2
    95    11    10    1
    96    10     9    1
    97     4     3    2
    98     9     6    1
    99     6     7    1
   100     6     5    1
   101     7     8    2
   102     3     5   am
   103     3     2    1
   104     2     1    1
