@<TRIPOS>MOLECULE
tmp/1zlfB00.pdb
 111 104 0 0 0
SMALL
GASTEIGER

@<TRIPOS>ATOM
      1  N        -21.3240   19.3350   -3.2250 N.3     8  ARG8       -0.1245
      2  CA       -20.6650   19.1250   -4.5280 C.3     8  ARG8        0.1563
      3  C        -21.4680   19.8240   -5.6250 C.2     8  ARG8        0.2260
      4  O        -22.6890   19.6730   -5.6860 O.2     8  ARG8       -0.2867
      5  CB       -20.6120   17.6560   -4.8680 C.3     8  ARG8        0.0307
      6  CG       -19.4060   17.0070   -4.3100 C.3     8  ARG8        0.0489
      7  CD       -19.2590   15.5770   -4.7920 C.3     8  ARG8        0.2205
      8  NE       -18.1970   14.9380   -4.0310 N.pl3   8  ARG8       -0.0865
      9  CZ       -18.2510   13.7100   -3.5300 C.cat   8  ARG8        0.5346
     10  NH1      -19.3360   12.9540   -3.7160 N.pl3   8  ARG8        0.1354
     11  NH2      -17.2190   13.2640   -2.8120 N.pl3   8  ARG8        0.1354
     12  N        -20.1320   16.6480  -12.3320 N.3    23  LEU23      -0.1245
     13  CA       -19.5820   17.5770  -11.3710 C.3    23  LEU23       0.1561
     14  C        -18.8880   18.7310  -12.0960 C.2    23  LEU23       0.2260
     15  O        -18.0370   18.5090  -12.9670 O.2    23  LEU23      -0.2867
     16  CB       -18.5970   16.8200  -10.4800 C.3    23  LEU23       0.0270
     17  CG       -17.9200   17.6140   -9.3570 C.3    23  LEU23       0.0019
     18  CD1      -18.9680   18.0750   -8.3820 C.3    23  LEU23       0.0001
     19  CD2      -16.9040   16.7490   -8.6270 C.3    23  LEU23       0.0001
     20  N        -16.1790   21.0380  -12.4360 N.3    25  ASP25      -0.1239
     21  CA       -14.8360   21.0510  -11.8460 C.3    25  ASP25       0.1674
     22  C        -13.8660   22.1100  -12.4010 C.2    25  ASP25       0.2266
     23  O        -13.3110   21.9300  -13.4750 O.2    25  ASP25      -0.2867
     24  CB       -14.2350   19.6310  -12.0070 C.3    25  ASP25       0.1410
     25  CG       -12.9150   19.4430  -11.2480 C.2    25  ASP25       0.3668
     26  OD1      -12.4190   20.3780  -10.5860 O.co2  25  ASP25      -0.2456
     27  OD2      -12.3580   18.3450  -11.2980 O.co2  25  ASP25      -0.2456
     28  N        -10.9690   22.6100  -11.5520 N.3    27  GLY27      -0.1210
     29  CA        -9.6130   22.0990  -11.5400 C.3    27  GLY27       0.1956
     30  C         -9.2820   21.0410  -12.5860 C.2    27  GLY27       0.2612
     31  O         -8.2500   20.3640  -12.5020 O.2    27  GLY27      -0.2717
     32  N        -10.1610   20.8910  -13.5690 N.am   28  ALA28      -0.1965
     33  CA        -9.9440   19.9340  -14.6360 C.3    28  ALA28       0.1728
     34  C         -9.8540   20.7450  -15.9210 C.2    28  ALA28       0.2616
     35  O        -10.6890   21.6050  -16.1900 O.2    28  ALA28      -0.2715
     36  CB       -11.1130   18.9420  -14.7000 C.3    28  ALA28       0.0334
     37  N         -8.8200   20.5180  -16.7100 N.am   29  ASP29      -0.1957
     38  CA        -8.7400   21.2560  -17.9570 C.3    29  ASP29       0.1840
     39  C         -9.7370   20.6360  -18.9280 C.2    29  ASP29       0.2622
     40  O        -10.3160   21.3330  -19.7600 O.2    29  ASP29      -0.2715
     41  CB        -7.3350   21.1700  -18.6010 C.3    29  ASP29       0.1450
     42  CG        -6.2080   21.3020  -17.6010 C.2    29  ASP29       0.3671
     43  OD1       -6.2470   22.2000  -16.7220 O.co2  29  ASP29      -0.2456
     44  OD2       -5.2720   20.4870  -17.7170 O.co2  29  ASP29      -0.2456
     45  N         -9.9210   19.3220  -18.8090 N.am   30  ASP30      -0.1971
     46  CA       -10.7850   18.5640  -19.7030 C.3    30  ASP30       0.1709
     47  C        -12.0480   17.9920  -19.0450 C.2    30  ASP30       0.2293
     48  O        -12.1910   17.9520  -17.8140 O.2    30  ASP30      -0.2864
     49  CB        -9.9980   17.3980  -20.3300 C.3    30  ASP30       0.1436
     50  CG        -8.5890   17.7820  -20.7490 C.2    30  ASP30       0.3671
     51  OD1       -8.4540   18.5870  -21.6840 O.co2  30  ASP30      -0.2456
     52  OD2       -7.6130   17.2790  -20.1380 O.co2  30  ASP30      -0.2456
     53  N        -14.3520   14.6570  -18.6560 N.3    32  VAL32      -0.1245
     54  CA       -14.3020   13.2100  -18.8310 C.3    32  VAL32       0.1561
     55  C        -15.4900   12.5130  -18.1750 C.2    32  VAL32       0.2260
     56  O        -15.8210   12.7760  -17.0310 O.2    32  VAL32      -0.2867
     57  CB       -12.9230   12.6400  -18.3380 C.3    32  VAL32       0.0252
     58  CG1      -12.4150   13.4610  -17.1700 C.3    32  VAL32       0.0019
     59  CG2      -13.0350   11.1530  -18.0080 C.3    32  VAL32       0.0019
     60  N         -4.7100   10.7020  -19.5610 N.3    47  ILE47      -0.1231
     61  CA        -4.7800   11.8910  -18.7170 C.3    47  ILE47       0.1692
     62  C         -4.4670   11.4700  -17.3230 C.2    47  ILE47       0.2593
     63  O         -4.6110   10.3100  -16.9730 O.2    47  ILE47      -0.2718
     64  CB        -6.1690   12.5360  -18.6430 C.3    47  ILE47       0.0266
     65  CG1       -7.2050   11.4550  -18.3470 C.3    47  ILE47       0.0019
     66  CG2       -6.4420   13.3510  -19.8920 C.3    47  ILE47       0.0020
     67  CD1       -8.5970   11.9870  -18.0790 C.3    47  ILE47       0.0001
     68  N         -4.0510   12.4320  -16.5190 N.am   48  GLY48      -0.1942
     69  CA        -3.7280   12.1370  -15.1430 C.3    48  GLY48       0.2014
     70  C         -4.2820   13.1710  -14.1820 C.2    48  GLY48       0.2639
     71  O         -4.7640   14.2510  -14.5710 O.2    48  GLY48      -0.2714
     72  N         -4.1970   12.8230  -12.9060 N.am   49  GLY49      -0.1939
     73  CA        -4.6640   13.6950  -11.8540 C.3    49  GLY49       0.2014
     74  C         -4.0560   13.2260  -10.5540 C.2    49  GLY49       0.2638
     75  O         -2.9080   12.7690  -10.5190 O.2    49  GLY49      -0.2714
     76  N         -4.8330   13.3210   -9.4830 N.am   50  ILE50      -0.1977
     77  CA        -4.3670   12.9180   -8.1660 C.3    50  ILE50       0.1596
     78  C         -4.5320   11.3940   -8.2170 C.2    50  ILE50       0.2287
     79  O         -5.5690   10.8800   -8.6560 O.2    50  ILE50      -0.2864
     80  CB        -5.3030   13.4500   -7.0610 C.3    50  ILE50       0.0276
     81  CG1       -4.7390   13.1160   -5.6800 C.3    50  ILE50       0.0022
     82  CG2       -6.6860   12.8350   -7.2290 C.3    50  ILE50       0.0022
     83  CD1       -3.4490   13.8350   -5.3840 C.3    50  ILE50       0.0001
     84  N        -13.0620    6.9790  -15.3110 N.3    80  THR80      -0.1204
     85  CA       -13.2370    7.9390  -14.2090 C.3    80  THR80       0.1979
     86  C        -14.3860    7.4820  -13.2980 C.2    80  THR80       0.2460
     87  O        -15.4130    6.9850  -13.7820 O.2    80  THR80      -0.2732
     88  CB       -13.6060    9.3750  -14.7450 C.3    80  THR80       0.1783
     89  OG1      -13.8240   10.2730  -13.6410 O.3    80  THR80      -0.2211
     90  CG2      -14.8950    9.3290  -15.5820 C.3    80  THR80       0.0376
     91  N        -14.2270    7.6360  -11.9710 N.am   81  PRO81      -0.2717
     92  CA       -15.2680    7.2520  -10.9950 C.3    81  PRO81       0.1535
     93  C        -16.5510    8.1030  -11.1500 C.2    81  PRO81       0.2599
     94  O        -17.6760    7.5780  -11.0660 O.2    81  PRO81      -0.2715
     95  CB       -14.5860    7.4840   -9.6430 C.3    81  PRO81       0.0310
     96  CG       -13.5200    8.5050   -9.9500 C.3    81  PRO81       0.0237
     97  CD       -12.9850    8.0260  -11.2830 C.3    81  PRO81       0.0939
     98  N        -16.3870    9.4130  -11.3610 N.am   82  THR82      -0.1951
     99  CA       -17.5360   10.2880  -11.5670 C.3    82  THR82       0.1897
    100  C        -17.3610   11.1470  -12.8360 C.2    82  THR82       0.2313
    101  O        -16.2430   11.3430  -13.3010 O.2    82  THR82      -0.2863
    102  CB       -17.7770   11.1810  -10.3100 C.3    82  THR82       0.1794
    103  OG1      -16.7450   12.1760  -10.2080 O.3    82  THR82      -0.2208
    104  CG2      -17.7920   10.3080   -9.0320 C.3    82  THR82       0.0378
    105  N        -17.0190   14.4540  -14.8880 N.3    84  VAL84      -0.1245
    106  CA       -16.5700   15.8100  -14.5170 C.3    84  VAL84       0.1561
    107  C        -16.6420   16.7400  -15.7070 C.2    84  VAL84       0.2260
    108  O        -16.2190   16.3810  -16.7840 O.2    84  VAL84      -0.2867
    109  CB       -15.0910   15.8660  -13.9800 C.3    84  VAL84       0.0252
    110  CG1      -14.9240   14.9410  -12.8210 C.3    84  VAL84       0.0019
    111  CG2      -14.1070   15.5360  -15.0750 C.3    84  VAL84       0.0019
@<TRIPOS>BOND
     1    51    50   ar
     2    50    49    1
     3    50    52   ar
     4    49    46    1
     5    66    64    1
     6    40    39    2
     7    46    47    1
     8    46    45    1
     9    60    61    1
    10    47    48    2
    11    39    45   am
    12    39    38    1
    13    54    53    1
    14    54    57    1
    15    54    55    1
    16    61    64    1
    17    61    62    1
    18    64    65    1
    19    41    38    1
    20    41    42    1
    21    65    67    1
    22    57    59    1
    23    57    58    1
    24    55    56    2
    25    38    37    1
    26    44    42   ar
    27    42    43   ar
    28    62    63    2
    29    62    68   am
    30   108   107    2
    31    37    34   am
    32    68    69    1
    33    35    34    2
    34    34    33    1
    35   107   106    1
    36    90    88    1
    37    84    85    1
    38    69    70    1
    39   111   109    1
    40   105   106    1
    41    88    85    1
    42    88    89    1
    43    36    33    1
    44    33    32    1
    45    71    70    2
    46   106   109    1
    47    85    86    1
    48    70    72   am
    49   109   110    1
    50    87    86    2
    51    32    30   am
    52    23    22    2
    53   101   100    2
    54    86    91   am
    55    15    14    2
    56    72    73    1
    57   100    99    1
    58    30    31    2
    59    30    29    1
    60    20    21    1
    61    22    21    1
    62    12    13    1
    63    14    13    1
    64    24    21    1
    65    24    25    1
    66    91    97    1
    67    91    92    1
    68    73    74    1
    69    99    98    1
    70    99   102    1
    71    28    29    1
    72    13    16    1
    73    98    93   am
    74    27    25   ar
    75    97    96    1
    76    25    26   ar
    77    93    94    2
    78    93    92    1
    79    92    95    1
    80    74    75    2
    81    74    76   am
    82    16    17    1
    83   102   103    1
    84   102   104    1
    85    96    95    1
    86    76    77    1
    87    17    19    1
    88    17    18    1
    89    79    78    2
    90    78    77    1
    91    77    80    1
    92    82    80    1
    93    80    81    1
    94     4     3    2
    95    81    83    1
    96     3     2    1
    97     5     2    1
    98     5     6    1
    99     7     6    1
   100     7     8    1
   101     2     1    1
   102     8     9    2
   103    10     9    1
   104     9    11    1
