@<TRIPOS>MOLECULE
tmp/1zlpB00.pdb
 158 149 0 0 0
SMALL
GASTEIGER

@<TRIPOS>ATOM
      1  N        -48.6870   95.4070   -0.9830 N.3    37  PHE37      -0.1241
      2  CA       -47.3120   95.3320   -0.5680 C.3    37  PHE37       0.1605
      3  C        -47.2340   94.7970    0.8580 C.2    37  PHE37       0.2264
      4  O        -47.6730   95.4670    1.7910 O.2    37  PHE37      -0.2867
      5  CB       -46.7400   96.7430   -0.6260 C.3    37  PHE37       0.0534
      6  CG       -45.2890   96.8280   -0.2760 C.ar   37  PHE37      -0.0203
      7  CD1      -44.3870   95.8870   -0.7520 C.ar   37  PHE37      -0.0042
      8  CD2      -44.8170   97.8540    0.5320 C.ar   37  PHE37      -0.0042
      9  CE1      -43.0440   95.9700   -0.4260 C.ar   37  PHE37      -0.0003
     10  CE2      -43.4710   97.9390    0.8600 C.ar   37  PHE37      -0.0003
     11  CZ       -42.5870   96.9990    0.3820 C.ar   37  PHE37      -0.0000
     12  N        -45.7140   94.9050    3.8790 N.3    39  SER39      -0.1217
     13  CA       -44.7770   95.8180    4.5520 C.3    39  SER39       0.1889
     14  C        -44.1350   95.2850    5.8430 C.2    39  SER39       0.2288
     15  O        -44.8260   95.0220    6.8470 O.2    39  SER39      -0.2866
     16  CB       -45.4880   97.1260    4.8930 C.3    39  SER39       0.2089
     17  OG       -45.2420   97.4870    6.2470 O.3    39  SER39      -0.2183
     18  N        -42.4210   96.8020    7.9820 N.3    41  TYR41      -0.1241
     19  CA       -42.6540   97.7770    9.0480 C.3    41  TYR41       0.1605
     20  C        -43.9910   97.4700    9.7090 C.2    41  TYR41       0.2264
     21  O        -44.1050   97.4430   10.9400 O.2    41  TYR41      -0.2867
     22  CB       -42.6360   99.1830    8.4330 C.3    41  TYR41       0.0534
     23  CG       -42.8520  100.3730    9.3650 C.ar   41  TYR41      -0.0201
     24  CD1      -44.1020  100.6480    9.9110 C.ar   41  TYR41      -0.0009
     25  CD2      -41.7970  101.2230    9.6950 C.ar   41  TYR41      -0.0009
     26  CE1      -44.2940  101.7370   10.7610 C.ar   41  TYR41       0.0417
     27  CE2      -41.9810  102.3080   10.5390 C.ar   41  TYR41       0.0417
     28  CZ       -43.2310  102.5600   11.0690 C.ar   41  TYR41       0.1957
     29  OH       -43.4240  103.6360   11.9100 O.3    41  TYR41      -0.2866
     30  N        -39.7420   98.9020   13.1740 N.3    52  ASP52      -0.1239
     31  CA       -39.0660   98.4550   11.9680 C.3    52  ASP52       0.1674
     32  C        -37.5510   98.5200   12.1520 C.2    52  ASP52       0.2266
     33  O        -36.8620   99.2660   11.4540 O.2    52  ASP52      -0.2867
     34  CB       -39.4790   99.3070   10.7790 C.3    52  ASP52       0.1410
     35  CG       -39.1040   98.6680    9.4690 C.2    52  ASP52       0.3668
     36  OD1      -38.9840   97.4190    9.4450 O.co2  52  ASP52      -0.2456
     37  OD2      -38.9100   99.3220    8.4200 O.co2  52  ASP52      -0.2456
     38  N        -42.0350   92.8050    1.1230 N.3    80  ASP80      -0.1239
     39  CA       -40.8650   93.5020    1.6700 C.3    80  ASP80       0.1674
     40  C        -39.8430   92.4660    2.1120 C.2    80  ASP80       0.2266
     41  O        -40.0570   91.7510    3.1060 O.2    80  ASP80      -0.2867
     42  CB       -41.2740   94.3740    2.8670 C.3    80  ASP80       0.1410
     43  CG       -40.1210   95.2130    3.4230 C.2    80  ASP80       0.3668
     44  OD1      -39.0180   95.2100    2.8230 O.co2  80  ASP80      -0.2456
     45  OD2      -40.2330   95.9080    4.4630 O.co2  80  ASP80      -0.2456
     46  N        -39.0360   93.4010   -2.7270 N.3   107  PHE107     -0.1241
     47  CA       -38.1380   94.5240   -2.5650 C.3   107  PHE107      0.1605
     48  C        -36.9550   93.9550   -1.7670 C.2   107  PHE107      0.2264
     49  O        -37.1670   93.2560   -0.7830 O.2   107  PHE107     -0.2867
     50  CB       -38.8370   95.6370   -1.7710 C.3   107  PHE107      0.0534
     51  CG       -39.8330   96.4520   -2.5720 C.ar  107  PHE107     -0.0203
     52  CD1      -40.5100   95.9070   -3.6550 C.ar  107  PHE107     -0.0042
     53  CD2      -40.0900   97.7780   -2.2310 C.ar  107  PHE107     -0.0042
     54  CE1      -41.4160   96.6660   -4.3750 C.ar  107  PHE107     -0.0003
     55  CE2      -41.0020   98.5450   -2.9530 C.ar  107  PHE107     -0.0003
     56  CZ       -41.6630   97.9880   -4.0230 C.ar  107  PHE107     -0.0000
     57  N        -32.9930   95.2970   -0.1400 N.3   109  GLU109     -0.1245
     58  CA       -32.2760   96.5180    0.2450 C.3   109  GLU109      0.1567
     59  C        -30.7600   96.4800    0.1940 C.2   109  GLU109      0.2260
     60  O        -30.1400   95.4370   -0.0410 O.2   109  GLU109     -0.2867
     61  CB       -32.6380   96.9010    1.6780 C.3   109  GLU109      0.0388
     62  CG       -34.0610   97.3900    1.8580 C.3   109  GLU109      0.1160
     63  CD       -34.5090   97.3090    3.3030 C.2   109  GLU109      0.3649
     64  OE1      -33.7020   97.6550    4.2020 O.co2 109  GLU109     -0.2457
     65  OE2      -35.6700   96.8960    3.5330 O.co2 109  GLU109     -0.2457
     66  N        -36.2800  101.2650    9.0200 N.3   117  CYS117     -0.1221
     67  CA       -37.1240  101.9460    8.0670 C.3   117  CYS117      0.1808
     68  C        -36.2820  102.9080    7.2450 C.2   117  CYS117      0.2602
     69  O        -35.3650  103.5460    7.7680 O.2   117  CYS117     -0.2717
     70  CB       -38.1890  102.7150    8.8310 C.3   117  CYS117      0.0970
     71  SG       -39.1230  103.8910    7.8250 S.3   117  CYS117     -0.0800
     72  N        -36.5850  103.0050    5.9500 N.am  118  GLY118     -0.1942
     73  CA       -35.8580  103.9080    5.0430 C.3   118  GLY118      0.2014
     74  C        -36.0110  105.3940    5.3600 C.2   118  GLY118      0.2638
     75  O        -35.2490  106.2390    4.8680 O.2   118  GLY118     -0.2714
     76  N        -37.0030  105.7110    6.1860 N.am  119  HIS119     -0.1973
     77  CA       -37.2300  107.0740    6.6360 C.3   119  HIS119      0.1656
     78  C        -36.7270  107.2740    8.0760 C.2   119  HIS119      0.2291
     79  O        -37.1150  108.2210    8.7600 O.2   119  HIS119     -0.2864
     80  CB       -38.7170  107.4340    6.4770 C.3   119  HIS119      0.0771
     81  CG       -39.1640  107.4940    5.0480 C.ar  119  HIS119      0.0820
     82  ND1      -39.4640  108.6780    4.4080 N.ar  119  HIS119     -0.2267
     83  CD2      -39.3590  106.5140    4.1330 C.ar  119  HIS119      0.1154
     84  CE1      -39.8260  108.4250    3.1620 C.ar  119  HIS119      0.1986
     85  NE2      -39.7700  107.1190    2.9690 N.ar  119  HIS119     -0.2212
     86  N        -33.9030   97.7350   -3.9370 N.3   152  ARG152     -0.1245
     87  CA       -34.0140   99.0070   -3.2370 C.3   152  ARG152      0.1563
     88  C        -32.6670   99.5040   -2.7580 C.2   152  ARG152      0.2260
     89  O        -31.8410   98.7120   -2.3110 O.2   152  ARG152     -0.2867
     90  CB       -34.9780   98.8880   -2.0600 C.3   152  ARG152      0.0307
     91  CG       -34.8720  100.0280   -1.0590 C.3   152  ARG152      0.0489
     92  CD       -35.9700  100.0070   -0.0170 C.3   152  ARG152      0.2205
     93  NE       -35.5090  100.4430    1.2960 N.pl3 152  ARG152     -0.0865
     94  CZ       -36.3090  100.6560    2.3360 C.cat 152  ARG152      0.5346
     95  NH1      -37.6240  100.4750    2.2220 N.pl3 152  ARG152      0.1354
     96  NH2      -35.7950  101.0530    3.4950 N.pl3 152  ARG152      0.1354
     97  N        -35.7150  101.1130   -6.9810 N.3   180  PHE180     -0.1241
     98  CA       -36.3690  101.8630   -5.9110 C.3   180  PHE180      0.1605
     99  C        -35.3390  102.7220   -5.1820 C.2   180  PHE180      0.2264
    100  O        -34.5160  102.1900   -4.4410 O.2   180  PHE180     -0.2867
    101  CB       -37.0450  100.8710   -4.9490 C.3   180  PHE180      0.0534
    102  CG       -37.6670  101.4970   -3.7190 C.ar  180  PHE180     -0.0203
    103  CD1      -37.9130  102.8580   -3.6410 C.ar  180  PHE180     -0.0042
    104  CD2      -38.0090  100.7080   -2.6300 C.ar  180  PHE180     -0.0042
    105  CE1      -38.4910  103.4160   -2.4920 C.ar  180  PHE180     -0.0003
    106  CE2      -38.5820  101.2630   -1.4910 C.ar  180  PHE180     -0.0003
    107  CZ       -38.8210  102.6170   -1.4260 C.ar  180  PHE180     -0.0000
    108  N        -34.8980  104.9190   -2.2520 N.3   182  GLU182     -0.1245
    109  CA       -35.6320  105.2550   -1.0290 C.3   182  GLU182      0.1567
    110  C        -35.4300  106.6880   -0.5550 C.2   182  GLU182      0.2260
    111  O        -34.3170  107.2210   -0.5800 O.2   182  GLU182     -0.2867
    112  CB       -35.2790  104.3070    0.1160 C.3   182  GLU182      0.0388
    113  CG       -35.8610  104.7180    1.4730 C.3   182  GLU182      0.1160
    114  CD       -37.3830  104.5690    1.5620 C.2   182  GLU182      0.3649
    115  OE1      -38.0830  105.1740    0.7360 O.co2 182  GLU182     -0.2457
    116  OE2      -37.8980  103.8470    2.4560 O.co2 182  GLU182     -0.2457
    117  N        -42.1820  105.4240   -2.8190 N.3   204  ASN204     -0.1240
    118  CA       -42.8080  104.9770   -1.5890 C.3   204  ASN204      0.1653
    119  C        -43.3840  106.1500   -0.7940 C.2   204  ASN204      0.2266
    120  O        -42.6540  107.0420   -0.3800 O.2   204  ASN204     -0.2867
    121  CB       -41.7770  104.2100   -0.7620 C.3   204  ASN204      0.1155
    122  CG       -42.2260  103.9890    0.6540 C.2   204  ASN204      0.2627
    123  OD1      -43.4080  103.7170    0.9120 O.2   204  ASN204     -0.2716
    124  ND2      -41.2850  104.1040    1.5960 N.am  204  ASN204     -0.0877
    125  N        -45.0280  107.7680    2.4250 N.3   206  ILE206     -0.1245
    126  CA       -45.0870  107.5670    3.8700 C.3   206  ILE206      0.1561
    127  C        -45.5670  108.8260    4.5780 C.2   206  ILE206      0.2260
    128  O        -44.8990  109.8610    4.5570 O.2   206  ILE206     -0.2867
    129  CB       -43.7110  107.1420    4.3820 C.3   206  ILE206      0.0252
    130  CG1      -43.4020  105.7460    3.8460 C.3   206  ILE206      0.0019
    131  CG2      -43.6480  107.1980    5.9100 C.3   206  ILE206      0.0019
    132  CD1      -42.5490  104.9250    4.7540 C.3   206  ILE206      0.0001
    133  N        -46.9320  102.3040    1.7790 N.3   230  SER230     -0.1202
    134  CA       -46.5960  101.2870    2.7620 C.3   230  SER230      0.2020
    135  C        -47.3580  101.3000    4.0760 C.2   230  SER230      0.2618
    136  O        -47.8600  100.2610    4.5040 O.2   230  SER230     -0.2717
    137  CB       -45.0970  101.3200    3.0340 C.3   230  SER230      0.2103
    138  OG       -44.3940  101.2420    1.8080 O.3   230  SER230     -0.2182
    139  N        -47.4470  102.4600    4.7160 N.am  231  LEU231     -0.1979
    140  CA       -47.9360  102.5150    6.0940 C.3   231  LEU231      0.1596
    141  C        -49.3640  103.0490    6.2590 C.2   231  LEU231      0.2287
    142  O        -49.8230  103.2850    7.3790 O.2   231  LEU231     -0.2864
    143  CB       -46.9500  103.2860    6.9820 C.3   231  LEU231      0.0297
    144  CG       -45.4610  103.0170    6.7230 C.3   231  LEU231      0.0022
    145  CD1      -44.5670  103.7430    7.7240 C.3   231  LEU231      0.0001
    146  CD2      -45.1720  101.5220    6.7370 C.3   231  LEU231      0.0001
    147  N        -51.0930  102.7160    9.8210 N.3   235  TYR235     -0.1241
    148  CA       -51.2050  103.9950   10.4820 C.3   235  TYR235      0.1605
    149  C        -52.6540  104.3070   10.8230 C.2   235  TYR235      0.2264
    150  O        -52.9570  104.7740   11.9240 O.2   235  TYR235     -0.2867
    151  CB       -50.5500  105.1080    9.6620 C.3   235  TYR235      0.0534
    152  CG       -49.0400  105.1530    9.8330 C.ar  235  TYR235     -0.0201
    153  CD1      -48.4120  104.4040   10.8340 C.ar  235  TYR235     -0.0009
    154  CD2      -48.2440  105.9390    9.0040 C.ar  235  TYR235     -0.0009
    155  CE1      -47.0360  104.4320   11.0060 C.ar  235  TYR235      0.0417
    156  CE2      -46.8600  105.9740    9.1700 C.ar  235  TYR235      0.0417
    157  CZ       -46.2650  105.2170   10.1730 C.ar  235  TYR235      0.1957
    158  OH       -44.8990  105.2450   10.3430 O.3   235  TYR235     -0.2866
@<TRIPOS>BOND
     1    97    98    1
     2    98    99    1
     3    98   101    1
     4    99   100    2
     5   101   102    1
     6    54    56   ar
     7    54    52   ar
     8    56    55   ar
     9    86    87    1
    10   102   103   ar
    11   102   104   ar
    12    52    51   ar
    13   103   105   ar
    14    87    88    1
    15    87    90    1
    16    55    53   ar
    17   117   118    1
    18    88    89    2
    19    46    47    1
    20   104   106   ar
    21    51    53   ar
    22    51    50    1
    23    47    50    1
    24    47    48    1
    25   105   107   ar
    26   108   109    1
    27    90    91    1
    28    48    49    2
    29   118   119    1
    30   118   121    1
    31   106   107   ar
    32    91    92    1
    33   109   110    1
    34   109   112    1
    35     1     2    1
    36   119   120    2
    37   121   122    1
    38     7     9   ar
    39     7     6   ar
    40     5     2    1
    41     5     6    1
    42   111   110    2
    43     2     3    1
    44     9    11   ar
    45     6     8   ar
    46    57    58    1
    47    60    59    2
    48    92    93    1
    49   112   113    1
    50    59    58    1
    51    58    61    1
    52    11    10   ar
    53     8    10   ar
    54   122   123    2
    55   122   124   am
    56   115   114   ar
    57     3     4    2
    58    38    39    1
    59    93    94    2
    60   113   114    1
    61   114   116   ar
    62    39    40    1
    63    39    42    1
    64    61    62    1
    65   133   134    1
    66   138   137    1
    67    62    63    1
    68    40    41    2
    69    95    94    1
    70    94    96    1
    71   125   126    1
    72   134   137    1
    73   134   135    1
    74    44    43   ar
    75    42    43    1
    76    85    84   ar
    77    85    83   ar
    78    84    82   ar
    79    63    65   ar
    80    63    64   ar
    81    43    45   ar
    82   130   129    1
    83   130   132    1
    84   126   129    1
    85   126   127    1
    86    12    13    1
    87   135   136    2
    88   135   139   am
    89    83    81   ar
    90   129   131    1
    91    82    81   ar
    92    13    16    1
    93    13    14    1
    94   128   127    2
    95   139   140    1
    96    75    74    2
    97    16    17    1
    98    73    74    1
    99    73    72    1
   100    81    80    1
   101    74    76   am
   102    14    15    2
   103    72    68   am
   104   140   141    1
   105   140   143    1
   106    76    77    1
   107   141   142    2
   108    80    77    1
   109    77    78    1
   110   144   146    1
   111   144   143    1
   112   144   145    1
   113    68    69    2
   114    68    67    1
   115    71    70    1
   116    18    19    1
   117    67    70    1
   118    67    66    1
   119    78    79    2
   120    37    35   ar
   121    22    19    1
   122    22    23    1
   123   154   156   ar
   124   154   152   ar
   125    19    20    1
   126   156   157   ar
   127    23    25   ar
   128    23    24   ar
   129    36    35   ar
   130    35    34    1
   131   151   152    1
   132   151   148    1
   133    25    27   ar
   134    20    21    2
   135   147   148    1
   136   152   153   ar
   137    24    26   ar
   138   157   158    1
   139   157   155   ar
   140   148   149    1
   141    27    28   ar
   142    26    28   ar
   143    34    31    1
   144   149   150    2
   145   153   155   ar
   146    28    29    1
   147    33    32    2
   148    31    32    1
   149    31    30    1
