@<TRIPOS>MOLECULE
tmp/1zlqB00.pdb
 105 102 0 0 0
SMALL
GASTEIGER

@<TRIPOS>ATOM
      1  N        -43.7220   19.0570  -20.7190 N.3    21  TYR21      -0.1241
      2  CA       -42.3940   19.2050  -20.1210 C.3    21  TYR21       0.1605
      3  C        -42.5150   18.9720  -18.6240 C.2    21  TYR21       0.2264
      4  O        -43.1360   17.9840  -18.2320 O.2    21  TYR21      -0.2867
      5  CB       -41.8050   20.5620  -20.5040 C.3    21  TYR21       0.0534
      6  CG       -41.6430   20.6820  -21.9980 C.ar   21  TYR21      -0.0201
      7  CD1      -42.6970   21.1550  -22.7980 C.ar   21  TYR21      -0.0009
      8  CD2      -40.4620   20.3050  -22.6250 C.ar   21  TYR21      -0.0009
      9  CE1      -42.5660   21.2420  -24.1810 C.ar   21  TYR21       0.0417
     10  CE2      -40.3140   20.3920  -24.0120 C.ar   21  TYR21       0.0417
     11  CZ       -41.3780   20.8590  -24.7860 C.ar   21  TYR21       0.1957
     12  OH       -41.2410   20.9630  -26.1630 O.3    21  TYR21      -0.2866
     13  N        -37.6900   13.3510  -18.7050 N.3    26  MET26      -0.1245
     14  CA       -37.3840   12.9250  -20.0740 C.3    26  MET26       0.1570
     15  C        -36.9820   11.4620  -20.1780 C.2    26  MET26       0.2261
     16  O        -37.4050   10.7690  -21.1090 O.2    26  MET26      -0.2867
     17  CB       -36.3100   13.8020  -20.7030 C.3    26  MET26       0.0387
     18  CG       -36.7330   15.2510  -20.7860 C.3    26  MET26       0.0595
     19  SD       -35.4620   16.3410  -21.4440 S.3    26  MET26      -0.1393
     20  CE       -35.4420   15.6950  -23.0810 C.3    26  MET26       0.0692
     21  N        -45.6010   26.5420  -27.1080 N.3    96  ARG96      -0.1245
     22  CA       -44.9160   25.9120  -25.9720 C.3    96  ARG96       0.1563
     23  C        -43.5930   25.2580  -26.4130 C.2    96  ARG96       0.2260
     24  O        -42.6610   25.0980  -25.6090 O.2    96  ARG96      -0.2867
     25  CB       -45.8370   24.8710  -25.3110 C.3    96  ARG96       0.0307
     26  CG       -45.2500   24.1410  -24.0860 C.3    96  ARG96       0.0489
     27  CD       -44.9130   25.1100  -22.9640 C.3    96  ARG96       0.2205
     28  NE       -44.1430   24.5090  -21.8680 N.pl3  96  ARG96      -0.0865
     29  CZ       -42.8080   24.4230  -21.8350 C.cat  96  ARG96       0.5346
     30  NH1      -42.0720   24.8660  -22.8420 N.pl3  96  ARG96       0.1354
     31  NH2      -42.2010   23.8950  -20.7810 N.pl3  96  ARG96       0.1354
     32  N        -38.8290   26.9310  -28.3420 N.3    99  TRP99      -0.1241
     33  CA       -37.3940   26.6170  -28.1890 C.3    99  TRP99       0.1605
     34  C        -36.8770   25.6810  -29.2810 C.2    99  TRP99       0.2264
     35  O        -35.6980   25.6990  -29.6210 O.2    99  TRP99      -0.2867
     36  CB       -37.1460   25.9880  -26.8090 C.3    99  TRP99       0.0550
     37  CG       -37.7160   24.5770  -26.6790 C.ar   99  TRP99       0.0003
     38  CD1      -38.9940   24.2270  -26.2910 C.ar   99  TRP99       0.0946
     39  CD2      -37.0280   23.3430  -26.9510 C.ar   99  TRP99       0.0152
     40  NE1      -39.1270   22.8480  -26.3000 N.ar   99  TRP99      -0.2442
     41  CE2      -37.9400   22.2850  -26.6940 C.ar   99  TRP99       0.0810
     42  CE3      -35.7180   23.0270  -27.3630 C.ar   99  TRP99       0.0012
     43  CZ2      -37.5900   20.9240  -26.8680 C.ar   99  TRP99       0.0191
     44  CZ3      -35.3680   21.6870  -27.5300 C.ar   99  TRP99       0.0001
     45  CH2      -36.3080   20.6440  -27.2710 C.ar   99  TRP99       0.0015
     46  N        -38.7440   14.4030  -26.4440 N.3   136  ARG136     -0.1245
     47  CA       -40.0160   15.1250  -26.5620 C.3   136  ARG136      0.1563
     48  C        -39.7890   16.3840  -27.4280 C.2   136  ARG136      0.2260
     49  O        -38.6490   16.8880  -27.5340 O.2   136  ARG136     -0.2867
     50  CB       -40.5610   15.5050  -25.1670 C.3   136  ARG136      0.0307
     51  CG       -39.6660   16.4430  -24.3630 C.3   136  ARG136      0.0489
     52  CD       -39.9810   16.4040  -22.9080 C.3   136  ARG136      0.2205
     53  NE       -39.1590   17.3540  -22.1410 N.pl3 136  ARG136     -0.0865
     54  CZ       -39.1570   17.4040  -20.8190 C.cat 136  ARG136      0.5346
     55  NH1      -39.9140   16.5480  -20.1210 N.pl3 136  ARG136      0.1354
     56  NH2      -38.4020   18.3100  -20.1980 N.pl3 136  ARG136      0.1354
     57  N        -27.0370   21.2790  -22.6530 N.3   397  TRP397     -0.1241
     58  CA       -28.0270   20.2010  -22.6510 C.3   397  TRP397      0.1605
     59  C        -27.5260   18.8320  -23.0890 C.2   397  TRP397      0.2264
     60  O        -28.2680   17.8450  -23.0040 O.2   397  TRP397     -0.2867
     61  CB       -29.2390   20.6140  -23.4820 C.3   397  TRP397      0.0550
     62  CG       -29.9770   21.8090  -22.9370 C.ar  397  TRP397      0.0003
     63  CD1      -29.8820   22.3530  -21.6940 C.ar  397  TRP397      0.0946
     64  CD2      -30.9500   22.5720  -23.6340 C.ar  397  TRP397      0.0152
     65  NE1      -30.7300   23.4320  -21.5800 N.ar  397  TRP397     -0.2442
     66  CE2      -31.3990   23.5850  -22.7560 C.ar  397  TRP397      0.0810
     67  CE3      -31.4760   22.5060  -24.9340 C.ar  397  TRP397      0.0012
     68  CZ2      -32.3520   24.5210  -23.1240 C.ar  397  TRP397      0.0191
     69  CZ3      -32.4260   23.4430  -25.3060 C.ar  397  TRP397      0.0001
     70  CH2      -32.8550   24.4410  -24.3980 C.ar  397  TRP397      0.0015
     71  N        -28.6280   18.0600  -28.3860 N.3   401  TYR401     -0.1241
     72  CA       -29.0620   19.4500  -28.2590 C.3   401  TYR401      0.1605
     73  C        -27.9120   20.4170  -28.4990 C.2   401  TYR401      0.2264
     74  O        -28.1260   21.5140  -29.0200 O.2   401  TYR401     -0.2867
     75  CB       -29.5820   19.7070  -26.8450 C.3   401  TYR401      0.0534
     76  CG       -30.7540   18.8550  -26.4660 C.ar  401  TYR401     -0.0201
     77  CD1      -30.5680   17.6930  -25.7370 C.ar  401  TYR401     -0.0009
     78  CD2      -32.0490   19.2190  -26.8360 C.ar  401  TYR401     -0.0009
     79  CE1      -31.6480   16.8860  -25.3750 C.ar  401  TYR401      0.0417
     80  CE2      -33.1480   18.4160  -26.4620 C.ar  401  TYR401      0.0417
     81  CZ       -32.9380   17.2730  -25.7350 C.ar  401  TYR401      0.1957
     82  OH       -34.0310   16.4610  -25.3820 O.3   401  TYR401     -0.2866
     83  N        -32.6950   27.9650  -28.5080 N.3   409  SER409     -0.1217
     84  CA       -33.4570   28.3440  -27.3220 C.3   409  SER409      0.1889
     85  C        -33.1310   29.7360  -26.7800 C.2   409  SER409      0.2288
     86  O        -34.0000   30.3760  -26.1810 O.2   409  SER409     -0.2866
     87  CB       -33.3270   27.2840  -26.2300 C.3   409  SER409      0.2089
     88  OG       -32.0710   27.3720  -25.5630 O.3   409  SER409     -0.2183
     89  N        -36.7720   33.0130  -20.8860 N.3   415  HIS415     -0.1241
     90  CA       -35.8570   31.9580  -20.4470 C.3   415  HIS415      0.1621
     91  C        -34.4840   32.5320  -20.0950 C.2   415  HIS415      0.2264
     92  O        -34.1810   33.6730  -20.4240 O.2   415  HIS415     -0.2867
     93  CB       -35.7780   30.8560  -21.5050 C.3   415  HIS415      0.0745
     94  CG       -37.1020   30.2090  -21.7670 C.ar  415  HIS415      0.0817
     95  ND1      -37.6030   29.1950  -20.9800 N.ar  415  HIS415     -0.2268
     96  CD2      -38.0610   30.4850  -22.6800 C.ar  415  HIS415      0.1154
     97  CE1      -38.7950   28.8400  -21.4270 C.ar  415  HIS415      0.1986
     98  NE2      -39.0980   29.6120  -22.4550 N.ar  415  HIS415     -0.2212
     99  N        -30.0500   12.9360  -21.9290 N.3   489  THR489     -0.1218
    100  CA       -31.1580   12.8870  -20.9870 C.3   489  THR489      0.1862
    101  C        -31.8680   11.5210  -20.9260 C.2   489  THR489      0.2287
    102  O        -32.8660   11.3640  -20.2140 O.2   489  THR489     -0.2866
    103  CB       -32.2250   13.9230  -21.3560 C.3   489  THR489      0.1770
    104  OG1      -32.5830   13.7490  -22.7300 O.3   489  THR489     -0.2211
    105  CG2      -31.7000   15.3370  -21.1260 C.3   489  THR489      0.0375
@<TRIPOS>BOND
     1    35    34    2
     2    34    33    1
     3    74    73    2
     4    83    84    1
     5    73    72    1
     6    71    72    1
     7    32    33    1
     8    72    75    1
     9    33    36    1
    10    49    48    2
    11    44    42   ar
    12    44    45   ar
    13    48    47    1
    14    42    39   ar
    15    84    85    1
    16    84    87    1
    17    45    43   ar
    18    21    22    1
    19    39    41   ar
    20    39    37   ar
    21    43    41   ar
    22    75    76    1
    23    78    76   ar
    24    78    80   ar
    25    36    37    1
    26    85    86    2
    27    41    40   ar
    28    37    38   ar
    29    47    46    1
    30    47    50    1
    31    76    77   ar
    32    80    81   ar
    33    23    22    1
    34    23    24    2
    35    40    38   ar
    36    87    88    1
    37    12    11    1
    38    22    25    1
    39    77    79   ar
    40    81    82    1
    41    81    79   ar
    42    25    26    1
    43    69    67   ar
    44    69    70   ar
    45    50    51    1
    46    67    64   ar
    47    11     9   ar
    48    11    10   ar
    49    70    68   ar
    50    51    52    1
    51     9     7   ar
    52    26    27    1
    53    10     8   ar
    54    64    62   ar
    55    64    66   ar
    56    61    62    1
    57    61    58    1
    58    68    66   ar
    59    59    60    2
    60    59    58    1
    61    20    19    1
    62    27    28    1
    63    62    63   ar
    64    52    53    1
    65    30    29    1
    66     7     6   ar
    67    66    65   ar
    68   104   103    1
    69    96    98   ar
    70    96    94   ar
    71    57    58    1
    72     8     6   ar
    73    98    97   ar
    74    53    54    2
    75     6     5    1
    76    99   100    1
    77    28    29    2
    78    29    31    1
    79    94    93    1
    80    94    95   ar
    81    63    65   ar
    82    93    90    1
    83    19    18    1
    84    97    95   ar
    85   103   105    1
    86   103   100    1
    87    16    15    2
    88   100   101    1
    89   101   102    2
    90    89    90    1
    91    54    56    1
    92    54    55    1
    93    18    17    1
    94     1     2    1
    95    17    14    1
    96     5     2    1
    97    90    91    1
    98    92    91    2
    99    15    14    1
   100     2     3    1
   101    14    13    1
   102     3     4    2
