@<TRIPOS>MOLECULE
tmp/1zlqA00.pdb
 106 104 0 0 0
SMALL
GASTEIGER

@<TRIPOS>ATOM
      1  N         -2.4210   -8.5200  -41.4200 N.3    20  TYR20      -0.1227
      2  CA        -2.0990   -7.2960  -40.6670 C.3    20  TYR20       0.1736
      3  C         -1.2280   -6.4050  -41.5340 C.2    20  TYR20       0.2596
      4  O         -1.5480   -6.2380  -42.6840 O.2    20  TYR20      -0.2718
      5  CB        -1.4710   -7.6770  -39.3080 C.3    20  TYR20       0.0548
      6  CG        -2.4240   -8.5390  -38.5070 C.ar   20  TYR20      -0.0200
      7  CD1       -2.4690   -9.9380  -38.6940 C.ar   20  TYR20      -0.0009
      8  CD2       -3.3290   -7.9660  -37.6120 C.ar   20  TYR20      -0.0009
      9  CE1       -3.3620  -10.7270  -37.9750 C.ar   20  TYR20       0.0417
     10  CE2       -4.2290   -8.7310  -36.9140 C.ar   20  TYR20       0.0417
     11  CZ        -4.2280  -10.1260  -37.0870 C.ar   20  TYR20       0.1957
     12  OH        -5.1230  -10.8790  -36.3720 O.3    20  TYR20      -0.2866
     13  N         -0.1310   -5.8280  -41.0270 N.am   21  THR21      -0.1953
     14  CA         0.8140   -5.1070  -41.9030 C.3    21  THR21       0.1897
     15  C          1.0280   -5.7680  -43.2620 C.2    21  THR21       0.2313
     16  O          1.2900   -6.9910  -43.3290 O.2    21  THR21      -0.2863
     17  CB         2.2350   -5.0510  -41.2770 C.3    21  THR21       0.1794
     18  OG1        2.1380   -4.5940  -39.9290 O.3    21  THR21      -0.2208
     19  CG2        3.1360   -4.1220  -42.0860 C.3    21  THR21       0.0378
     20  N         -6.2680   -1.0180  -41.1480 N.3    25  MET25      -0.1245
     21  CA        -7.5520   -1.4190  -40.5650 C.3    25  MET25       0.1570
     22  C         -8.7330   -0.6110  -41.1000 C.2    25  MET25       0.2261
     23  O         -9.7830   -1.1730  -41.3620 O.2    25  MET25      -0.2867
     24  CB        -7.5460   -1.3720  -39.0160 C.3    25  MET25       0.0387
     25  CG        -6.5340   -2.3240  -38.3720 C.3    25  MET25       0.0595
     26  SD        -6.5830   -2.2630  -36.5670 S.3    25  MET25      -0.1393
     27  CE        -8.0870   -3.0990  -36.3070 C.3    25  MET25       0.0692
     28  N         -0.7930  -16.7250  -36.0130 N.3    95  ARG95      -0.1245
     29  CA        -0.6640  -15.2730  -36.3090 C.3    95  ARG95       0.1563
     30  C         -1.6980  -14.4430  -35.5490 C.2    95  ARG95       0.2260
     31  O         -1.4990  -13.2420  -35.3150 O.2    95  ARG95      -0.2867
     32  CB        -0.7320  -15.0300  -37.8280 C.3    95  ARG95       0.0307
     33  CG        -0.5600  -13.5860  -38.3350 C.3    95  ARG95       0.0489
     34  CD         0.6700  -12.8610  -37.7840 C.3    95  ARG95       0.2205
     35  NE         0.2500  -12.1140  -36.6080 N.pl3  95  ARG95      -0.0865
     36  CZ         0.3080  -10.7960  -36.4340 C.cat  95  ARG95       0.5346
     37  NH1        0.8430   -9.9850  -37.3430 N.pl3  95  ARG95       0.1354
     38  NH2       -0.1480  -10.2960  -35.2960 N.pl3  95  ARG95       0.1354
     39  N         -2.5420  -12.8560  -30.4040 N.3    98  TRP98      -0.1241
     40  CA        -2.8420  -11.6710  -29.6370 C.3    98  TRP98       0.1605
     41  C         -4.3230  -11.6060  -29.3050 C.2    98  TRP98       0.2264
     42  O         -4.6950  -11.0430  -28.2930 O.2    98  TRP98      -0.2867
     43  CB        -2.4280  -10.4200  -30.4200 C.3    98  TRP98       0.0550
     44  CG        -3.2810  -10.1460  -31.6410 C.ar   98  TRP98       0.0003
     45  CD1       -3.0850  -10.6170  -32.9330 C.ar   98  TRP98       0.0946
     46  CD2       -4.4570   -9.3400  -31.6850 C.ar   98  TRP98       0.0152
     47  NE1       -4.0800  -10.1420  -33.7610 N.ar   98  TRP98      -0.2442
     48  CE2       -4.9340   -9.3600  -33.0210 C.ar   98  TRP98       0.0810
     49  CE3       -5.1660   -8.6120  -30.7230 C.ar   98  TRP98       0.0012
     50  CZ2       -6.0760   -8.6560  -33.4180 C.ar   98  TRP98       0.0191
     51  CZ3       -6.3050   -7.9100  -31.1180 C.ar   98  TRP98       0.0001
     52  CH2       -6.7530   -7.9480  -32.4630 C.ar   98  TRP98       0.0015
     53  N        -10.5460   -6.6520  -38.0680 N.3   135  ARG135     -0.1245
     54  CA        -9.9050   -7.8990  -38.4990 C.3   135  ARG135      0.1563
     55  C         -9.6360   -8.7570  -37.2660 C.2   135  ARG135      0.2260
     56  O         -9.5070   -8.2340  -36.1410 O.2   135  ARG135     -0.2867
     57  CB        -8.5940   -7.6180  -39.2410 C.3   135  ARG135      0.0307
     58  CG        -7.5550   -6.8190  -38.4180 C.3   135  ARG135      0.0489
     59  CD        -6.5290   -6.2380  -39.2970 C.3   135  ARG135      0.2205
     60  NE        -5.4930   -5.5750  -38.5070 N.pl3 135  ARG135     -0.0865
     61  CZ        -4.5090   -4.8360  -39.0060 C.cat 135  ARG135      0.5346
     62  NH1       -4.4020   -4.5970  -40.3180 N.pl3 135  ARG135      0.1354
     63  NH2       -3.6160   -4.3210  -38.1560 N.pl3 135  ARG135      0.1354
     64  N         -5.2950    0.7000  -27.1790 N.3   396  TRP396     -0.1241
     65  CA        -5.8370    0.4210  -28.5170 C.3   396  TRP396      0.1605
     66  C         -7.1990    1.0160  -28.7740 C.2   396  TRP396      0.2264
     67  O         -7.7100    0.9000  -29.8810 O.2   396  TRP396     -0.2867
     68  CB        -5.8770   -1.0920  -28.7610 C.3   396  TRP396      0.0550
     69  CG        -4.5440   -1.7700  -28.7700 C.ar  396  TRP396      0.0003
     70  CD1       -3.3140   -1.1910  -28.9280 C.ar  396  TRP396      0.0946
     71  CD2       -4.3150   -3.1830  -28.6320 C.ar  396  TRP396      0.0152
     72  NE1       -2.3340   -2.1650  -28.8900 N.ar  396  TRP396     -0.2442
     73  CE2       -2.9230   -3.3910  -28.7080 C.ar  396  TRP396      0.0810
     74  CE3       -5.1560   -4.2920  -28.4380 C.ar  396  TRP396      0.0012
     75  CZ2       -2.3430   -4.6730  -28.6040 C.ar  396  TRP396      0.0191
     76  CZ3       -4.5780   -5.5720  -28.3450 C.ar  396  TRP396      0.0001
     77  CH2       -3.1880   -5.7440  -28.4210 C.ar  396  TRP396      0.0015
     78  N        -11.1990   -2.5690  -27.9340 N.3   400  TYR400     -0.1241
     79  CA       -10.0670   -3.3450  -27.4460 C.3   400  TYR400      0.1605
     80  C         -9.7780   -3.1200  -25.9660 C.2   400  TYR400      0.2264
     81  O         -9.3210   -4.0350  -25.2910 O.2   400  TYR400     -0.2867
     82  CB        -8.7980   -2.9830  -28.1960 C.3   400  TYR400      0.0534
     83  CG        -8.8690   -3.1710  -29.6870 C.ar  400  TYR400     -0.0201
     84  CD1       -9.2160   -2.1040  -30.5150 C.ar  400  TYR400     -0.0009
     85  CD2       -8.5520   -4.3920  -30.2670 C.ar  400  TYR400     -0.0009
     86  CE1       -9.2750   -2.2490  -31.8930 C.ar  400  TYR400      0.0417
     87  CE2       -8.5940   -4.5530  -31.6410 C.ar  400  TYR400      0.0417
     88  CZ        -8.9680   -3.4730  -32.4470 C.ar  400  TYR400      0.1957
     89  OH        -9.0200   -3.6140  -33.8170 O.3   400  TYR400     -0.2866
     90  N          5.4660   -9.4040  -27.3450 N.3   414  HIS414     -0.1241
     91  CA         4.8470   -8.0790  -27.4120 C.3   414  HIS414      0.1621
     92  C          5.4490   -7.2030  -26.3140 C.2   414  HIS414      0.2264
     93  O          5.8620   -7.7160  -25.2600 O.2   414  HIS414     -0.2867
     94  CB         3.3480   -8.1590  -27.1170 C.3   414  HIS414      0.0745
     95  CG         2.5170   -8.7700  -28.2050 C.ar  414  HIS414      0.0817
     96  ND1        1.1460   -8.6080  -28.2550 N.ar  414  HIS414     -0.2268
     97  CD2        2.8470   -9.5340  -29.2740 C.ar  414  HIS414      0.1154
     98  CE1        0.6700   -9.2460  -29.3100 C.ar  414  HIS414      0.1986
     99  NE2        1.6830   -9.8130  -29.9470 N.ar  414  HIS414     -0.2212
    100  N        -10.2120    2.5870  -34.5370 N.3   488  THR488     -0.1218
    101  CA        -9.3680    2.3980  -35.7360 C.3   488  THR488      0.1862
    102  C        -10.1050    2.5090  -37.0860 C.2   488  THR488      0.2287
    103  O         -9.5100    2.3420  -38.1510 O.2   488  THR488     -0.2866
    104  CB        -8.6540    1.0210  -35.7040 C.3   488  THR488      0.1770
    105  OG1       -9.6170   -0.0250  -35.5270 O.3   488  THR488     -0.2211
    106  CG2       -7.6420    0.9630  -34.5540 C.3   488  THR488      0.0375
@<TRIPOS>BOND
     1    16    15    2
     2    15    14    1
     3     4     3    2
     4    19    17    1
     5    14    17    1
     6    14    13    1
     7     3    13   am
     8     3     2    1
     9     1     2    1
    10    23    22    2
    11    17    18    1
    12    20    21    1
    13    22    21    1
    14     2     5    1
    15    21    24    1
    16    62    61    1
    17     5     6    1
    18    59    60    1
    19    59    58    1
    20    57    54    1
    21    57    58    1
    22    24    25    1
    23    61    60    2
    24    61    63    1
    25     7     6   ar
    26     7     9   ar
    27     6     8   ar
    28    54    53    1
    29    54    55    1
    30    25    26    1
    31    33    32    1
    32    33    34    1
    33   103   102    2
    34     9    11   ar
    35    32    29    1
    36    34    35    1
    37     8    10   ar
    38    37    36    1
    39    55    56    2
    40    11    10   ar
    41    11    12    1
    42   102   101    1
    43    35    36    2
    44    26    27    1
    45    36    38    1
    46    29    28    1
    47    29    30    1
    48   101   104    1
    49   101   100    1
    50   104   105    1
    51   104   106    1
    52    30    31    2
    53    89    88    1
    54    47    48   ar
    55    47    45   ar
    56    50    48   ar
    57    50    52   ar
    58    48    46   ar
    59    45    44   ar
    60    52    51   ar
    61    88    86   ar
    62    88    87   ar
    63    86    84   ar
    64    46    44   ar
    65    46    49   ar
    66    44    43    1
    67    87    85   ar
    68    51    49   ar
    69    84    83   ar
    70    43    40    1
    71    39    40    1
    72    85    83   ar
    73    99    98   ar
    74    99    97   ar
    75    67    66    2
    76    83    82    1
    77    40    41    1
    78    98    96   ar
    79    41    42    2
    80    97    95   ar
    81    70    72   ar
    82    70    69   ar
    83    72    73   ar
    84    66    65    1
    85    69    68    1
    86    69    71   ar
    87    68    65    1
    88    73    71   ar
    89    73    75   ar
    90    71    74   ar
    91    75    77   ar
    92    65    64    1
    93    74    76   ar
    94    77    76   ar
    95    96    95   ar
    96    95    94    1
    97    82    79    1
    98    78    79    1
    99    79    80    1
   100    91    90    1
   101    91    94    1
   102    91    92    1
   103    92    93    2
   104    80    81    2
