@<TRIPOS>MOLECULE
tmp/1zlrA00.pdb
 171 170 0 0 0
SMALL
GASTEIGER

@<TRIPOS>ATOM
      1  N         10.6140   78.7020   90.7920 N.3    44  HIS44      -0.1241
      2  CA         9.2400   78.5240   90.3230 C.3    44  HIS44       0.1621
      3  C          8.5830   77.2620   90.8860 C.2    44  HIS44       0.2264
      4  O          7.3790   77.0650   90.7370 O.2    44  HIS44      -0.2867
      5  CB         9.1660   78.5240   88.7830 C.3    44  HIS44       0.0745
      6  CG         9.5690   77.2310   88.1410 C.ar   44  HIS44       0.0817
      7  ND1       10.8080   77.0370   87.5640 N.ar   44  HIS44      -0.2268
      8  CD2        8.8790   76.0820   87.9420 C.ar   44  HIS44       0.1154
      9  CE1       10.8610   75.8290   87.0310 C.ar   44  HIS44       0.1986
     10  NE2        9.7030   75.2290   87.2460 N.ar   44  HIS44      -0.2212
     11  N          8.1120   63.9410   83.2740 N.3   134  TYR134     -0.1241
     12  CA         7.4080   63.3210   82.1520 C.3   134  TYR134      0.1605
     13  C          8.3850   62.8050   81.0900 C.2   134  TYR134      0.2264
     14  O          9.4210   63.4210   80.8450 O.2   134  TYR134     -0.2867
     15  CB         6.4750   64.3490   81.4920 C.3   134  TYR134      0.0534
     16  CG         5.2630   64.7720   82.3010 C.ar  134  TYR134     -0.0201
     17  CD1        5.1580   64.4790   83.6490 C.ar  134  TYR134     -0.0009
     18  CD2        4.2360   65.4930   81.7090 C.ar  134  TYR134     -0.0009
     19  CE1        4.0690   64.8920   84.3830 C.ar  134  TYR134      0.0417
     20  CE2        3.1430   65.9100   82.4350 C.ar  134  TYR134      0.0417
     21  CZ         3.0650   65.6080   83.7690 C.ar  134  TYR134      0.1957
     22  OH         1.9790   66.0310   84.4960 O.3   134  TYR134     -0.2866
     23  N          4.8880   64.3990   76.5770 N.3   137  LEU137     -0.1231
     24  CA         4.1240   65.5610   76.9930 C.3   137  LEU137      0.1693
     25  C          2.8100   65.0640   77.5930 C.2   137  LEU137      0.2591
     26  O          2.3920   63.9350   77.3250 O.2   137  LEU137     -0.2718
     27  CB         3.8610   66.4760   75.7980 C.3   137  LEU137      0.0284
     28  CG         4.0170   67.9630   76.1160 C.3   137  LEU137      0.0019
     29  CD1        3.7270   68.7910   74.8810 C.3   137  LEU137      0.0001
     30  CD2        3.0760   68.3340   77.2440 C.3   137  LEU137      0.0001
     31  N          2.1690   65.8990   78.4060 N.am  138  ARG138     -0.1980
     32  CA         0.9120   65.5280   79.0560 C.3   138  ARG138      0.1597
     33  C          0.9690   64.0600   79.4850 C.2   138  ARG138      0.2287
     34  O          0.1310   63.2420   79.0980 O.2   138  ARG138     -0.2864
     35  CB        -0.2810   65.7690   78.1130 C.3   138  ARG138      0.0334
     36  CG        -0.3840   67.2080   77.5980 C.3   138  ARG138      0.0492
     37  CD        -1.7950   67.5570   77.1260 C.3   138  ARG138      0.2205
     38  NE        -2.6890   67.8820   78.2380 N.pl3 138  ARG138     -0.0865
     39  CZ        -3.8360   67.2550   78.4880 C.cat 138  ARG138      0.5346
     40  NH1       -4.2370   66.2610   77.7020 N.pl3 138  ARG138      0.1354
     41  NH2       -4.5810   67.6200   79.5260 N.pl3 138  ARG138      0.1354
     42  N         15.5000   65.8240   76.5090 N.3   182  ASP182     -0.1225
     43  CA        15.2670   67.0750   77.2130 C.3   182  ASP182      0.1805
     44  C         14.5670   66.9020   78.5590 C.2   182  ASP182      0.2598
     45  O         14.0450   65.8360   78.8840 O.2   182  ASP182     -0.2718
     46  CB        14.4270   67.9720   76.2820 C.3   182  ASP182      0.1424
     47  CG        14.2450   69.3960   76.7930 C.2   182  ASP182      0.3668
     48  OD1       14.9470   69.8320   77.7290 O.co2 182  ASP182     -0.2456
     49  OD2       13.3860   70.0930   76.2200 O.co2 182  ASP182     -0.2456
     50  N         14.5790   67.9660   79.3490 N.am  183  ALA183     -0.1966
     51  CA        13.9120   67.9640   80.6380 C.3   183  ALA183      0.1728
     52  C         12.4360   68.1900   80.3130 C.2   183  ALA183      0.2616
     53  O         12.1100   68.6970   79.2400 O.2   183  ALA183     -0.2715
     54  CB        14.4500   69.1040   81.5000 C.3   183  ALA183      0.0334
     55  N         11.5430   67.8020   81.2170 N.am  184  CYS184     -0.1954
     56  CA        10.1170   67.9980   80.9930 C.3   184  CYS184      0.1843
     57  C          9.4310   68.1520   82.3550 C.2   184  CYS184      0.2625
     58  O         10.0840   68.0060   83.3880 O.2   184  CYS184     -0.2714
     59  CB         9.5430   66.8310   80.1860 C.3   184  CYS184      0.0997
     60  SG         7.9770   67.2180   79.3300 S.3   184  CYS184     -0.0797
     61  N          8.1360   68.4650   82.3650 N.am  185  LYS185     -0.1963
     62  CA         7.4220   68.7000   83.6240 C.3   185  LYS185      0.1728
     63  C          7.7290   67.7150   84.7510 C.2   185  LYS185      0.2617
     64  O          7.5350   66.5070   84.6110 O.2   185  LYS185     -0.2715
     65  CB         5.9080   68.7620   83.3930 C.3   185  LYS185      0.0311
     66  CG         5.1690   69.2880   84.6130 C.3   185  LYS185      0.0038
     67  CD         3.7250   69.6470   84.3320 C.3   185  LYS185      0.0206
     68  CE         3.0820   70.2460   85.5800 C.3   185  LYS185      0.1093
     69  NZ         1.6710   70.6870   85.3710 N.3   185  LYS185     -0.1314
     70  N          8.2000   68.2480   85.8770 N.am  186  GLY186     -0.1940
     71  CA         8.5440   67.4100   87.0100 C.3   186  GLY186      0.2014
     72  C         10.0490   67.3990   87.2240 C.2   186  GLY186      0.2639
     73  O         10.5320   67.0810   88.3160 O.2   186  GLY186     -0.2714
     74  N         10.7900   67.7550   86.1770 N.am  187  ASP187     -0.1957
     75  CA        12.2460   67.8010   86.2400 C.3   187  ASP187      0.1840
     76  C         12.7590   69.1280   86.7950 C.2   187  ASP187      0.2622
     77  O         13.9450   69.2520   87.0950 O.2   187  ASP187     -0.2715
     78  CB        12.8650   67.5730   84.8480 C.3   187  ASP187      0.1450
     79  CG        12.6140   66.1730   84.3110 C.2   187  ASP187      0.3671
     80  OD1       12.7720   65.1960   85.0830 O.co2 187  ASP187     -0.2456
     81  OD2       12.2740   66.0530   83.1090 O.co2 187  ASP187     -0.2456
     82  N         11.8670   70.1120   86.9200 N.am  188  SER188     -0.1950
     83  CA        12.2090   71.4460   87.4360 C.3   188  SER188      0.1924
     84  C         13.0000   71.4270   88.7430 C.2   188  SER188      0.2314
     85  O         12.7020   70.6380   89.6420 O.2   188  SER188     -0.2863
     86  CB        10.9390   72.2600   87.6740 C.3   188  SER188      0.2116
     87  OG        10.3160   72.5940   86.4580 O.3   188  SER188     -0.2180
     88  N         17.3840   73.0030   86.0410 N.3   206  THR206     -0.1203
     89  CA        16.2590   72.9280   85.1070 C.3   206  THR206      0.1994
     90  C         15.2490   74.0320   85.4190 C.2   206  THR206      0.2619
     91  O         14.6780   74.0730   86.5100 O.2   206  THR206     -0.2717
     92  CB        15.6030   71.5450   85.1900 C.3   206  THR206      0.1784
     93  OG1       16.6140   70.5420   85.0180 O.3   206  THR206     -0.2211
     94  CG2       14.5510   71.3810   84.1090 C.3   206  THR206      0.0376
     95  N         15.0370   74.9310   84.4580 N.am  207  SER207     -0.1937
     96  CA        14.1420   76.0750   84.6570 C.3   207  SER207      0.2055
     97  C         12.9350   76.1660   83.7190 C.2   207  SER207      0.2643
     98  O         11.8020   76.3140   84.1720 O.2   207  SER207     -0.2714
     99  CB        14.9630   77.3700   84.5730 C.3   207  SER207      0.2130
    100  OG        14.1680   78.5250   84.7950 O.3   207  SER207     -0.2179
    101  N         13.1620   76.0940   82.4150 N.am  208  TRP208     -0.1959
    102  CA        12.0460   76.1770   81.4840 C.3   208  TRP208      0.1771
    103  C         12.4070   75.8400   80.0460 C.2   208  TRP208      0.2620
    104  O         13.5750   75.6160   79.7180 O.2   208  TRP208     -0.2715
    105  CB        11.4180   77.5770   81.5240 C.3   208  TRP208      0.0590
    106  CG        12.3320   78.6920   81.0780 C.ar  208  TRP208      0.0006
    107  CD1       13.2880   79.3190   81.8220 C.ar  208  TRP208      0.0946
    108  CD2       12.3530   79.3220   79.7860 C.ar  208  TRP208      0.0152
    109  NE1       13.8980   80.3050   81.0780 N.ar  208  TRP208     -0.2442
    110  CE2       13.3430   80.3260   79.8260 C.ar  208  TRP208      0.0810
    111  CE3       11.6270   79.1370   78.6030 C.ar  208  TRP208      0.0012
    112  CZ2       13.6270   81.1410   78.7300 C.ar  208  TRP208      0.0191
    113  CZ3       11.9110   79.9510   77.5160 C.ar  208  TRP208      0.0001
    114  CH2       12.9010   80.9390   77.5880 C.ar  208  TRP208      0.0015
    115  N         11.3840   75.8140   79.1960 N.am  209  GLY209     -0.1940
    116  CA        11.5620   75.5120   77.7880 C.3   209  GLY209      0.2014
    117  C         10.2230   75.5760   77.0780 C.2   209  GLY209      0.2639
    118  O          9.2020   75.8750   77.7010 O.2   209  GLY209     -0.2714
    119  N         10.2150   75.3070   75.7780 N.am  210  GLU210     -0.1963
    120  CA         8.9740   75.3280   75.0090 C.3   210  GLU210      0.1733
    121  C          8.5860   73.8930   74.6910 C.2   210  GLU210      0.2617
    122  O          9.1860   73.2590   73.8200 O.2   210  GLU210     -0.2715
    123  CB         9.1670   76.1110   73.7120 C.3   210  GLU210      0.0429
    124  CG         7.8830   76.3220   72.9340 C.3   210  GLU210      0.1163
    125  CD         6.8160   77.0210   73.7560 C.2   210  GLU210      0.3649
    126  OE1        7.0270   78.2060   74.1130 O.co2 210  GLU210     -0.2457
    127  OE2        5.7730   76.3770   74.0410 O.co2 210  GLU210     -0.2457
    128  N          7.5790   73.3780   75.3890 N.am  211  GLY211     -0.1940
    129  CA         7.1800   72.0010   75.1680 C.3   211  GLY211      0.2014
    130  C          8.3020   71.1280   75.7030 C.2   211  GLY211      0.2639
    131  O          9.0110   71.5330   76.6230 O.2   211  GLY211     -0.2714
    132  N          8.4830   69.9390   75.1370 N.am  212  CYS212     -0.1967
    133  CA         9.5500   69.0540   75.5900 C.3   212  CYS212      0.1712
    134  C         10.2450   68.3330   74.4520 C.2   212  CYS212      0.2296
    135  O          9.6060   67.6360   73.6640 O.2   212  CYS212     -0.2864
    136  CB         9.0060   68.0270   76.5830 C.3   212  CYS212      0.0983
    137  SG         8.4380   68.7930   78.1300 S.3   212  CYS212     -0.0798
    138  N         14.4740   73.8340   69.9870 N.3   217  ARG217     -0.1245
    139  CA        13.9430   74.3860   71.2330 C.3   217  ARG217      0.1563
    140  C         14.7430   73.8160   72.4040 C.2   217  ARG217      0.2260
    141  O         14.2780   72.9220   73.1150 O.2   217  ARG217     -0.2867
    142  CB        12.4630   74.0340   71.4050 C.3   217  ARG217      0.0307
    143  CG        11.5240   74.7540   70.4530 C.3   217  ARG217      0.0489
    144  CD        11.4570   76.2480   70.7370 C.3   217  ARG217      0.2205
    145  NE        10.3870   76.8870   69.9760 N.pl3 217  ARG217     -0.0865
    146  CZ         9.9870   78.1410   70.1560 C.cat 217  ARG217      0.5346
    147  NH1       10.5670   78.9010   71.0720 N.pl3 217  ARG217      0.1354
    148  NH2        8.9960   78.6360   69.4310 N.pl3 217  ARG217      0.1354
    149  N         16.5490   73.3300   76.0370 N.3   219  GLY219     -0.1210
    150  CA        16.0460   73.5680   77.3810 C.3   219  GLY219      0.1956
    151  C         16.7960   74.7380   77.9960 C.2   219  GLY219      0.2612
    152  O         17.9650   74.9650   77.6820 O.2   219  GLY219     -0.2717
    153  N         16.1440   75.4990   78.8610 N.am  220  VAL220     -0.1965
    154  CA        16.8210   76.6330   79.4710 C.3   220  VAL220      0.1727
    155  C         17.0770   76.3430   80.9440 C.2   220  VAL220      0.2616
    156  O         16.1860   75.8970   81.6630 O.2   220  VAL220     -0.2715
    157  CB        15.9860   77.9340   79.3390 C.3   220  VAL220      0.0290
    158  CG1       16.8010   79.1220   79.8350 C.3   220  VAL220      0.0023
    159  CG2       15.5750   78.1470   77.8930 C.3   220  VAL220      0.0023
    160  N         18.3010   76.6020   81.3870 N.am  221  TYR221     -0.1974
    161  CA        18.6800   76.3540   82.7680 C.3   221  TYR221      0.1639
    162  C         19.2940   77.5870   83.4220 C.2   221  TYR221      0.2290
    163  O         19.8330   78.4570   82.7470 O.2   221  TYR221     -0.2864
    164  CB        19.6840   75.1990   82.8310 C.3   221  TYR221      0.0560
    165  CG        19.2080   73.9330   82.1560 C.ar  221  TYR221     -0.0198
    166  CD1       19.1510   73.8330   80.7690 C.ar  221  TYR221     -0.0009
    167  CD2       18.8020   72.8390   82.9100 C.ar  221  TYR221     -0.0009
    168  CE1       18.7040   72.6740   80.1570 C.ar  221  TYR221      0.0417
    169  CE2       18.3580   71.6820   82.3150 C.ar  221  TYR221      0.0417
    170  CZ        18.3060   71.5960   80.9400 C.ar  221  TYR221      0.1957
    171  OH        17.8450   70.4330   80.3600 O.3   221  TYR221     -0.2866
@<TRIPOS>BOND
     1   148   146    1
     2   145   146    2
     3   145   144    1
     4   138   139    1
     5   146   147    1
     6   143   144    1
     7   143   142    1
     8   139   142    1
     9   139   140    1
    10   140   141    2
    11   124   123    1
    12   124   125    1
    13   135   134    2
    14   123   120    1
    15   125   127   ar
    16   125   126   ar
    17   122   121    2
    18   134   133    1
    19   121   120    1
    20   121   128   am
    21    29    28    1
    22   120   119    1
    23   132   133    1
    24   132   130   am
    25   129   128    1
    26   129   130    1
    27   133   136    1
    28   130   131    2
    29   119   117   am
    30    27    28    1
    31    27    24    1
    32   149   150    1
    33    28    30    1
    34    49    47   ar
    35    46    47    1
    36    46    43    1
    37    42    43    1
    38    23    24    1
    39   136   137    1
    40    47    48   ar
    41    24    25    1
    42   117   118    2
    43   117   116    1
    44    37    36    1
    45    37    38    1
    46    43    44    1
    47    26    25    2
    48   150   151    1
    49   113   114   ar
    50   113   111   ar
    51   114   112   ar
    52    25    31   am
    53    36    35    1
    54   152   151    2
    55    40    39    1
    56   116   115    1
    57   159   157    1
    58   151   153   am
    59    35    32    1
    60   137    60    1
    61    38    39    2
    62    31    32    1
    63    39    41    1
    64    44    45    2
    65    44    50   am
    66   111   108   ar
    67   112   110   ar
    68   153   154    1
    69    32    33    1
    70    34    33    2
    71   115   103   am
    72    53    52    2
    73    60    59    1
    74   157   154    1
    75   157   158    1
    76    50    51    1
    77   154   155    1
    78   104   103    2
    79   108   110   ar
    80   108   106   ar
    81   110   109   ar
    82   103   102    1
    83   168   166   ar
    84   168   170   ar
    85    59    56    1
    86    52    51    1
    87    52    55   am
    88   171   170    1
    89    51    54    1
    90   166   165   ar
    91    14    13    2
    92   170   169   ar
    93   155   160   am
    94   155   156    2
    95    56    55    1
    96    56    57    1
    97   109   107   ar
    98   106   105    1
    99   106   107   ar
   100    13    12    1
   101   160   161    1
   102   102   105    1
   103   102   101    1
   104    15    12    1
   105    15    16    1
   106    18    16   ar
   107    18    20   ar
   108    12    11    1
   109   165   164    1
   110   165   167   ar
   111    16    17   ar
   112   169   167   ar
   113    57    61   am
   114    57    58    2
   115    61    62    1
   116   101    97   am
   117    20    21   ar
   118   163   162    2
   119   161   164    1
   120   161   162    1
   121    81    79   ar
   122    65    62    1
   123    65    66    1
   124    62    63    1
   125    17    19   ar
   126    97    98    2
   127    97    96    1
   128    21    19   ar
   129    21    22    1
   130    94    92    1
   131    79    78    1
   132    79    80   ar
   133    67    66    1
   134    67    68    1
   135    95    96    1
   136    95    90   am
   137    99    96    1
   138    99   100    1
   139    64    63    2
   140    63    70   am
   141    78    75    1
   142    93    92    1
   143    89    92    1
   144    89    90    1
   145    89    88    1
   146    69    68    1
   147    90    91    2
   148    70    71    1
   149    74    75    1
   150    74    72   am
   151    75    76    1
   152    87    86    1
   153    76    82   am
   154    76    77    2
   155    82    83    1
   156    71    72    1
   157     9    10   ar
   158     9     7   ar
   159    72    73    2
   160    10     8   ar
   161    83    86    1
   162    83    84    1
   163     7     6   ar
   164     8     6   ar
   165     6     5    1
   166    84    85    2
   167     5     2    1
   168     2     1    1
   169     2     3    1
   170     4     3    2
