@<TRIPOS>MOLECULE
tmp/1zltA00.pdb
 149 139 0 0 0
SMALL
GASTEIGER

@<TRIPOS>ATOM
      1  N         18.1670   -6.3260    6.1590 N.3    14  LEU14      -0.1231
      2  CA        18.7800   -5.3970    7.1000 C.3    14  LEU14       0.1696
      3  C         18.7570   -5.9360    8.5150 C.2    14  LEU14       0.2632
      4  O         19.5730   -5.5510    9.3450 O.2    14  LEU14      -0.2714
      5  CB        18.0620   -4.0590    7.0820 C.3    14  LEU14       0.0284
      6  CG        17.9930   -3.3060    5.7580 C.3    14  LEU14       0.0019
      7  CD1       17.0610   -2.1200    5.9570 C.3    14  LEU14       0.0001
      8  CD2       19.3810   -2.8470    5.3090 C.3    14  LEU14       0.0001
      9  N         17.8130   -6.8130    8.8050 N.am   15  GLY15      -0.1718
     10  CA        17.7740   -7.3310   10.1520 C.2    15  GLY15       0.1480
     11  C         16.5140   -8.0400   10.5610 C.2    15  GLY15       0.2820
     12  O         15.7370   -8.5070    9.7270 O.2    15  GLY15      -0.2669
     13  N         16.3080   -8.0870   11.8740 N.am   16  GLU16      -0.1929
     14  CA        15.1740   -8.7760   12.4560 C.3    16  GLU16       0.1736
     15  C         14.5230   -7.8640   13.4950 C.2    16  GLU16       0.2617
     16  O         15.2250   -7.1680   14.2270 O.2    16  GLU16      -0.2715
     17  CB        15.6840  -10.0540   13.1370 C.3    16  GLU16       0.0429
     18  CG        14.7440  -11.2340   13.0860 C.3    16  GLU16       0.1163
     19  CD        14.6500  -11.8420   11.7020 C.2    16  GLU16       0.3649
     20  OE1       15.7030  -11.9740   11.0360 O.co2  16  GLU16      -0.2457
     21  OE2       13.5240  -12.2040   11.2850 O.co2  16  GLU16      -0.2457
     22  N         13.1890   -7.8550   13.5240 N.am   17  GLY17      -0.1955
     23  CA        12.4540   -7.0550   14.4890 C.3    17  GLY17       0.1869
     24  C         11.9330   -7.9890   15.5730 C.2    17  GLY17       0.2309
     25  O         12.2800   -9.1760   15.6010 O.2    17  GLY17      -0.2863
     26  N         13.3240   -7.6770    8.3420 N.3    22  VAL22      -0.1245
     27  CA        13.3930   -6.3580    7.7200 C.3    22  VAL22       0.1561
     28  C         14.2690   -6.3720    6.4820 C.2    22  VAL22       0.2260
     29  O         15.4130   -6.8090    6.5310 O.2    22  VAL22      -0.2867
     30  CB        13.9240   -5.3150    8.7280 C.3    22  VAL22       0.0252
     31  CG1       14.0180   -3.9320    8.0770 C.3    22  VAL22       0.0019
     32  CG2       12.9800   -5.2600    9.9480 C.3    22  VAL22       0.0019
     33  N         12.6260    0.7270    4.4480 N.3    35  ALA35      -0.1245
     34  CA        12.8230   -0.5520    5.0710 C.3    35  ALA35       0.1562
     35  C         11.4600   -1.2120    5.0630 C.2    35  ALA35       0.2260
     36  O         10.4480   -0.5580    5.2900 O.2    35  ALA35      -0.2867
     37  CB        13.3100   -0.3620    6.5090 C.3    35  ALA35       0.0290
     38  N          9.3440   -4.2350    6.8220 N.3    37  LYS37      -0.1245
     39  CA         9.3280   -5.2940    7.8100 C.3    37  LYS37       0.1561
     40  C          8.3130   -6.2710    7.2550 C.2    37  LYS37       0.2260
     41  O          7.1960   -5.8850    6.8990 O.2    37  LYS37      -0.2867
     42  CB         8.8990   -4.7810    9.1980 C.3    37  LYS37       0.0271
     43  CG         8.5480   -5.9040   10.1520 C.3    37  LYS37       0.0035
     44  CD         8.4040   -5.4530   11.5930 C.3    37  LYS37       0.0206
     45  CE         9.6830   -4.8580   12.1360 C.3    37  LYS37       0.1093
     46  NZ         9.5400   -4.5540   13.5920 N.3    37  LYS37      -0.1314
     47  N          1.1740   -3.4830   16.6310 N.3    51  GLU51      -0.1245
     48  CA         2.3700   -2.7300   16.2320 C.3    51  GLU51       0.1567
     49  C          2.0290   -1.7420   15.1260 C.2    51  GLU51       0.2260
     50  O          2.4070   -0.5710   15.1700 O.2    51  GLU51      -0.2867
     51  CB         3.4670   -3.6770   15.7300 C.3    51  GLU51       0.0388
     52  CG         4.7460   -2.9560   15.3450 C.3    51  GLU51       0.1160
     53  CD         5.8790   -3.8990   15.0150 C.2    51  GLU51       0.3649
     54  OE1        5.7860   -5.0900   15.4040 O.co2  51  GLU51      -0.2457
     55  OE2        6.8690   -3.4410   14.3890 O.co2  51  GLU51      -0.2457
     56  N         11.3640    6.0380   14.2060 N.3    64  VAL64      -0.1245
     57  CA        11.3570    5.4870   12.8500 C.3    64  VAL64       0.1561
     58  C          9.9790    5.7650   12.2140 C.2    64  VAL64       0.2260
     59  O          8.9510    5.3340   12.7310 O.2    64  VAL64      -0.2867
     60  CB        11.5950    3.9630   12.8860 C.3    64  VAL64       0.0252
     61  CG1       11.2110    3.3200   11.5450 C.3    64  VAL64       0.0019
     62  CG2       13.0520    3.6810   13.2010 C.3    64  VAL64       0.0019
     63  N          8.6690    1.1760    6.4510 N.3    80  LEU80      -0.1231
     64  CA         9.2850    2.0080    7.4740 C.3    80  LEU80       0.1693
     65  C         10.4860    2.8040    6.9980 C.2    80  LEU80       0.2592
     66  O         11.1440    2.4590    6.0110 O.2    80  LEU80      -0.2718
     67  CB         9.7200    1.0960    8.6280 C.3    80  LEU80       0.0284
     68  CG         8.6620    0.1390    9.2000 C.3    80  LEU80       0.0019
     69  CD1        9.3050   -1.0660    9.8780 C.3    80  LEU80       0.0001
     70  CD2        7.8190    0.9050   10.2080 C.3    80  LEU80       0.0001
     71  N         10.7740    3.8790    7.7120 N.am   81  GLU81      -0.1966
     72  CA        11.9250    4.7110    7.3750 C.3    81  GLU81       0.1733
     73  C         13.2180    3.9020    7.4170 C.2    81  GLU81       0.2616
     74  O         13.4990    3.2200    8.4050 O.2    81  GLU81      -0.2715
     75  CB        12.0160    5.8510    8.3780 C.3    81  GLU81       0.0429
     76  CG        13.2720    6.6730    8.3300 C.3    81  GLU81       0.1163
     77  CD        13.2050    7.7780    9.3480 C.2    81  GLU81       0.3649
     78  OE1       14.0510    8.6990    9.2950 O.co2  81  GLU81      -0.2457
     79  OE2       12.2880    7.7020   10.2020 O.co2  81  GLU81      -0.2457
     80  N         13.9930    3.9570    6.3370 N.am   82  TYR82      -0.1960
     81  CA        15.2720    3.2560    6.3070 C.3    82  TYR82       0.1771
     82  C         16.3130    4.1190    7.0030 C.2    82  TYR82       0.2619
     83  O         16.4800    5.2930    6.6710 O.2    82  TYR82      -0.2715
     84  CB        15.7090    2.9940    4.8620 C.3    82  TYR82       0.0574
     85  CG        17.1620    2.5580    4.6970 C.ar   82  TYR82      -0.0198
     86  CD1       17.7020    1.5230    5.4640 C.ar   82  TYR82      -0.0009
     87  CD2       17.9710    3.1480    3.7340 C.ar   82  TYR82      -0.0009
     88  CE1       19.0190    1.0870    5.2660 C.ar   82  TYR82       0.0417
     89  CE2       19.2740    2.7230    3.5290 C.ar   82  TYR82       0.0417
     90  CZ        19.7890    1.6960    4.2940 C.ar   82  TYR82       0.1957
     91  OH        21.0780    1.2790    4.0770 O.3    82  TYR82      -0.2866
     92  N         17.0080    3.5370    7.9720 N.am   83  CYS83      -0.1968
     93  CA        18.0520    4.2480    8.7250 C.3    83  CYS83       0.1712
     94  C         19.3900    3.6320    8.3040 C.2    83  CYS83       0.2296
     95  O         19.8400    2.6340    8.8550 O.2    83  CYS83      -0.2864
     96  CB        17.8060    4.0670   10.2220 C.3    83  CYS83       0.0983
     97  SG        16.1690    4.6060   10.6980 S.3    83  CYS83      -0.0798
     98  N         22.4040    2.1680   10.5940 N.3    86  GLY86      -0.1210
     99  CA        22.4050    0.9190   11.3430 C.3    86  GLY86       0.1956
    100  C         21.9390    1.0570   12.7890 C.2    86  GLY86       0.2611
    101  O         21.3900    2.0790   13.1630 O.2    86  GLY86      -0.2717
    102  N         22.1510    0.0170   13.5800 N.am   87  GLU87      -0.1979
    103  CA        21.7480    0.0150   14.9780 C.3    87  GLU87       0.1602
    104  C         22.7780    0.6960   15.8450 C.2    87  GLU87       0.2287
    105  O         23.9820    0.5960   15.6040 O.2    87  GLU87      -0.2864
    106  CB        21.5720   -1.4100   15.4880 C.3    87  GLU87       0.0415
    107  CG        20.5870   -2.2480   14.7110 C.3    87  GLU87       0.1163
    108  CD        20.6270   -3.6880   15.1550 C.2    87  GLU87       0.3649
    109  OE1       19.8030   -4.4880   14.6550 O.co2  87  GLU87      -0.2457
    110  OE2       21.4820   -4.0110   16.0110 O.co2  87  GLU87      -0.2457
    111  N         19.8510   -2.2730   20.2180 N.3   130  GLU130     -0.1231
    112  CA        19.4160   -3.0150   19.0350 C.3   130  GLU130      0.1699
    113  C         18.2220   -2.3400   18.3600 C.2   130  GLU130      0.2592
    114  O         18.0900   -2.3620   17.1310 O.2   130  GLU130     -0.2718
    115  CB        19.0330   -4.4560   19.4080 C.3   130  GLU130      0.0402
    116  CG        20.2450   -5.2830   19.8320 C.3   130  GLU130      0.1161
    117  CD        20.4600   -5.3090   21.3220 C.2   130  GLU130      0.3649
    118  OE1       20.1550   -4.3000   22.0300 O.co2 130  GLU130     -0.2457
    119  OE2       20.9620   -6.3560   21.7810 O.co2 130  GLU130     -0.2457
    120  N         17.3520   -1.7410   19.1670 N.am  131  ASN131     -0.1974
    121  CA        16.1780   -1.0660   18.6490 C.3   131  ASN131      0.1688
    122  C         16.3200    0.4410   18.4370 C.2   131  ASN131      0.2292
    123  O         15.3220    1.1060   18.1830 O.2   131  ASN131     -0.2864
    124  CB        14.9770   -1.2980   19.5880 C.3   131  ASN131      0.1181
    125  CG        14.5140   -2.7280   19.5850 C.2   131  ASN131      0.2629
    126  OD1       14.5570   -3.3820   18.5490 O.2   131  ASN131     -0.2716
    127  ND2       14.0480   -3.2280   20.7460 N.am  131  ASN131     -0.0877
    128  N         17.9240    3.0950   16.0660 N.3   133  LEU133     -0.1245
    129  CA        18.5990    3.1810   14.7720 C.3   133  LEU133      0.1561
    130  C         19.1550    4.5380   14.4310 C.2   133  LEU133      0.2260
    131  O         18.7190    5.5610   14.9360 O.2   133  LEU133     -0.2867
    132  CB        17.6570    2.7140   13.6600 C.3   133  LEU133      0.0270
    133  CG        16.8690    1.4430   13.9740 C.3   133  LEU133      0.0019
    134  CD1       15.9840    1.1360   12.7950 C.3   133  LEU133      0.0001
    135  CD2       17.7810    0.2680   14.2940 C.3   133  LEU133      0.0001
    136  N         12.9370    2.4980   17.1810 N.3   143  SER143     -0.1202
    137  CA        12.2690    1.5500   16.3230 C.3   143  SER143      0.2020
    138  C         11.6510    0.3860   17.0770 C.2   143  SER143      0.2618
    139  O         11.9000    0.1780   18.2680 O.2   143  SER143     -0.2717
    140  CB        13.2610    0.9780   15.3110 C.3   143  SER143      0.2103
    141  OG        14.0080   -0.0610   15.9100 O.3   143  SER143     -0.2182
    142  N         10.8380   -0.3700   16.3390 N.am  144  ASP144     -0.1973
    143  CA        10.1980   -1.5840   16.8170 C.3   144  ASP144      0.1709
    144  C          9.1910   -1.4080   17.9290 C.2   144  ASP144      0.2293
    145  O          9.5270   -1.4200   19.1080 O.2   144  ASP144     -0.2864
    146  CB        11.2700   -2.6110   17.2160 C.3   144  ASP144      0.1436
    147  CG        10.7260   -4.0270   17.2580 C.2   144  ASP144      0.3671
    148  OD1       11.5090   -4.9950   17.0680 O.co2 144  ASP144     -0.2456
    149  OD2        9.5050   -4.1690   17.4940 O.co2 144  ASP144     -0.2456
@<TRIPOS>BOND
     1    89    87   ar
     2    89    90   ar
     3    87    85   ar
     4    91    90    1
     5    90    88   ar
     6    33    34    1
     7    85    84    1
     8    85    86   ar
     9    84    81    1
    10    35    34    1
    11    35    36    2
    12    34    37    1
    13    88    86   ar
    14     8     6    1
    15     6     7    1
    16     6     5    1
    17    66    65    2
    18     1     2    1
    19    81    80    1
    20    81    82    1
    21    80    73   am
    22    63    64    1
    23    28    29    2
    24    28    27    1
    25    83    82    2
    26    38    39    1
    27    41    40    2
    28    65    64    1
    29    65    71   am
    30    82    92   am
    31     5     2    1
    32     2     3    1
    33    40    39    1
    34    72    73    1
    35    72    71    1
    36    72    75    1
    37    73    74    2
    38    64    67    1
    39    27    26    1
    40    27    30    1
    41    39    42    1
    42    92    93    1
    43    31    30    1
    44    94    93    1
    45    94    95    2
    46    76    75    1
    47    76    77    1
    48     3     9    1
    49     3     4    2
    50    67    68    1
    51    93    96    1
    52    30    32    1
    53     9    10    2
    54    42    43    1
    55    68    69    1
    56    68    70    1
    57    78    77   ar
    58    77    79   ar
    59    12    11    2
    60    43    44    1
    61    10    11    1
    62    96    97    1
    63    11    13   am
    64    98    99    1
    65    20    19   ar
    66    21    19   ar
    67    99   100    1
    68    61    60    1
    69    44    45    1
    70    19    18    1
    71    13    14    1
    72    45    46    1
    73    58    59    2
    74    58    57    1
    75    14    17    1
    76    14    15    1
    77   100   101    2
    78   100   102   am
    79   134   133    1
    80    57    60    1
    81    57    56    1
    82    60    62    1
    83    18    17    1
    84    15    22   am
    85    15    16    2
    86    22    23    1
    87   102   103    1
    88   132   133    1
    89   132   129    1
    90   133   135    1
    91    55    53   ar
    92   130   129    1
    93   130   131    2
    94    23    24    1
    95   109   108   ar
    96   107   108    1
    97   107   106    1
    98   129   128    1
    99   103   106    1
   100   103   104    1
   101    53    52    1
   102    53    54   ar
   103    49    50    2
   104    49    48    1
   105   108   110   ar
   106   140   141    1
   107   140   137    1
   108    52    51    1
   109    24    25    2
   110   105   104    2
   111    51    48    1
   112    48    47    1
   113   137   138    1
   114   137   136    1
   115   142   143    1
   116   142   138   am
   117   143   146    1
   118   143   144    1
   119   148   147   ar
   120   138   139    2
   121   114   113    2
   122   146   147    1
   123   147   149   ar
   124   144   145    2
   125   123   122    2
   126   113   112    1
   127   113   120   am
   128   122   121    1
   129   126   125    2
   130   121   120    1
   131   121   124    1
   132   112   115    1
   133   112   111    1
   134   115   116    1
   135   125   124    1
   136   125   127   am
   137   116   117    1
   138   117   119   ar
   139   117   118   ar
