@<TRIPOS>MOLECULE
tmp/1zlyA01.pdb
 159 153 0 0 0
SMALL
GASTEIGER

@<TRIPOS>ATOM
      1  N         21.2500   40.0260   39.1020 N.3    64  ARG64      -0.1245
      2  CA        22.4370   39.4910   39.7480 C.3    64  ARG64       0.1563
      3  C         22.6900   40.2170   41.0640 C.2    64  ARG64       0.2260
      4  O         22.7070   41.4490   41.1200 O.2    64  ARG64      -0.2867
      5  CB        23.6370   39.6250   38.8060 C.3    64  ARG64       0.0307
      6  CG        24.9930   39.6330   39.4890 C.3    64  ARG64       0.0489
      7  CD        26.0770   39.8310   38.4480 C.3    64  ARG64       0.2205
      8  NE        27.0430   40.8450   38.8530 N.pl3  64  ARG64      -0.0865
      9  CZ        27.9280   41.3970   38.0290 C.cat  64  ARG64       0.5346
     10  NH1       27.9680   41.0320   36.7540 N.pl3  64  ARG64       0.1354
     11  NH2       28.7690   42.3200   38.4780 N.pl3  64  ARG64       0.1354
     12  N         36.3590   27.9080   41.4400 N.3    85  LEU85      -0.1245
     13  CA        35.8210   28.3820   40.1660 C.3    85  LEU85       0.1561
     14  C         36.6370   27.6870   39.0690 C.2    85  LEU85       0.2260
     15  O         37.8250   27.9600   38.9120 O.2    85  LEU85      -0.2867
     16  CB        35.9750   29.9050   40.0540 C.3    85  LEU85       0.0270
     17  CG        34.9400   30.8150   40.7350 C.3    85  LEU85       0.0019
     18  CD1       34.5030   30.2430   42.0620 C.3    85  LEU85       0.0001
     19  CD2       35.5280   32.1980   40.9160 C.3    85  LEU85       0.0001
     20  N         34.2240   29.1790   35.3040 N.3    88  PHE88      -0.1227
     21  CA        32.9180   29.7730   35.5570 C.3    88  PHE88       0.1736
     22  C         32.8060   31.1300   34.8670 C.2    88  PHE88       0.2595
     23  O         33.4690   32.0910   35.2580 O.2    88  PHE88      -0.2718
     24  CB        32.7190   29.9320   37.0680 C.3    88  PHE88       0.0547
     25  CG        31.3000   30.2080   37.4760 C.ar   88  PHE88      -0.0202
     26  CD1       30.2800   29.3210   37.1410 C.ar   88  PHE88      -0.0042
     27  CD2       30.9850   31.3450   38.2150 C.ar   88  PHE88      -0.0042
     28  CE1       28.9670   29.5600   37.5370 C.ar   88  PHE88      -0.0003
     29  CE2       29.6730   31.5930   38.6170 C.ar   88  PHE88      -0.0003
     30  CZ        28.6620   30.6980   38.2760 C.ar   88  PHE88      -0.0000
     31  N         31.9630   31.2020   33.8400 N.am   89  MET89      -0.1965
     32  CA        31.7650   32.4430   33.0910 C.3    89  MET89       0.1736
     33  C         30.6810   33.3210   33.7060 C.2    89  MET89       0.2616
     34  O         29.6130   33.4890   33.1200 O.2    89  MET89      -0.2715
     35  CB        31.3850   32.1390   31.6380 C.3    89  MET89       0.0427
     36  CG        32.4390   31.4000   30.8390 C.3    89  MET89       0.0599
     37  SD        31.9310   31.1810   29.1220 S.3    89  MET89      -0.1393
     38  CE        32.6250   32.6560   28.3670 C.3    89  MET89       0.0692
     39  N         30.9640   33.8900   34.8740 N.am   90  ARG90      -0.1963
     40  CA        30.0160   34.7610   35.5690 C.3    90  ARG90       0.1729
     41  C         30.6960   35.4730   36.7290 C.2    90  ARG90       0.2616
     42  O         31.0760   34.8390   37.7120 O.2    90  ARG90      -0.2715
     43  CB        28.8340   33.9470   36.1060 C.3    90  ARG90       0.0348
     44  CG        27.7550   33.6260   35.0850 C.3    90  ARG90       0.0492
     45  CD        26.7780   34.7800   34.9170 C.3    90  ARG90       0.2205
     46  NE        27.4040   36.0190   34.4690 N.pl3  90  ARG90      -0.0865
     47  CZ        26.7570   37.1750   34.3490 C.cat  90  ARG90       0.5346
     48  NH1       25.4660   37.2490   34.6450 N.pl3  90  ARG90       0.1354
     49  NH2       27.3970   38.2590   33.9350 N.pl3  90  ARG90       0.1354
     50  N         30.8500   36.7880   36.6210 N.am   91  ILE91      -0.1963
     51  CA        31.4800   37.5490   37.6910 C.3    91  ILE91       0.1727
     52  C         30.5560   37.5950   38.9040 C.2    91  ILE91       0.2616
     53  O         29.3860   37.9560   38.7910 O.2    91  ILE91      -0.2715
     54  CB        31.8200   38.9890   37.2440 C.3    91  ILE91       0.0290
     55  CG1       32.8750   38.9490   36.1330 C.3    91  ILE91       0.0022
     56  CG2       32.3430   39.7920   38.4270 C.3    91  ILE91       0.0023
     57  CD1       33.2900   40.3140   35.6190 C.3    91  ILE91       0.0001
     58  N         31.0880   37.2180   40.0600 N.am   92  LEU92      -0.1977
     59  CA        30.3140   37.2010   41.2950 C.3    92  LEU92       0.1596
     60  C         30.2290   38.5860   41.9260 C.2    92  LEU92       0.2287
     61  O         31.1430   39.3990   41.7920 O.2    92  LEU92      -0.2864
     62  CB        30.9390   36.2150   42.2840 C.3    92  LEU92       0.0297
     63  CG        31.1250   34.7950   41.7430 C.3    92  LEU92       0.0022
     64  CD1       31.9470   33.9700   42.7200 C.3    92  LEU92       0.0001
     65  CD2       29.7660   34.1580   41.4970 C.3    92  LEU92       0.0001
     66  N         31.4200   37.4610   47.1120 N.3    97  VAL97      -0.1245
     67  CA        32.8740   37.4350   47.2040 C.3    97  VAL97       0.1561
     68  C         33.3000   37.7550   48.6310 C.2    97  VAL97       0.2260
     69  O         34.3210   37.2680   49.1170 O.2    97  VAL97      -0.2867
     70  CB        33.5100   38.4710   46.2590 C.3    97  VAL97       0.0252
     71  CG1       35.0210   38.4910   46.4420 C.3    97  VAL97       0.0019
     72  CG2       33.1470   38.1450   44.8240 C.3    97  VAL97       0.0019
     73  N         40.3360   30.4300   42.1790 N.3   106  ASN106     -0.1240
     74  CA        40.1100   30.5300   40.7460 C.3   106  ASN106      0.1653
     75  C         41.3870   30.1920   39.9800 C.2   106  ASN106      0.2266
     76  O         42.4930   30.4830   40.4460 O.2   106  ASN106     -0.2867
     77  CB        39.6720   31.9450   40.3820 C.3   106  ASN106      0.1155
     78  CG        39.5190   32.1380   38.8880 C.2   106  ASN106      0.2627
     79  OD1       40.1050   33.0540   38.3070 O.2   106  ASN106     -0.2716
     80  ND2       38.7280   31.2770   38.2550 N.am  106  ASN106     -0.0877
     81  N         43.3690   30.8900   36.4630 N.3   108  HIS108     -0.1241
     82  CA        43.4030   31.8450   35.3450 C.3   108  HIS108      0.1621
     83  C         44.5610   31.5070   34.3970 C.2   108  HIS108      0.2264
     84  O         45.6970   31.3470   34.8350 O.2   108  HIS108     -0.2867
     85  CB        43.5710   33.2660   35.8870 C.3   108  HIS108      0.0745
     86  CG        43.5040   34.3310   34.8350 C.ar  108  HIS108      0.0817
     87  ND1       42.3340   34.6720   34.1930 N.ar  108  HIS108     -0.2268
     88  CD2       44.4660   35.1300   34.3130 C.ar  108  HIS108      0.1154
     89  CE1       42.5760   35.6370   33.3230 C.ar  108  HIS108      0.1986
     90  NE2       43.8620   35.9330   33.3760 N.ar  108  HIS108     -0.2212
     91  N         41.3030   39.1840   32.5230 N.3   117  GLY117     -0.1210
     92  CA        40.2080   39.1250   31.5650 C.3   117  GLY117      0.1956
     93  C         39.9020   37.7360   31.0470 C.2   117  GLY117      0.2612
     94  O         40.5940   36.7780   31.3830 O.2   117  GLY117     -0.2717
     95  N         38.8810   37.6340   30.2020 N.am  118  SER118     -0.1952
     96  CA        38.4480   36.3450   29.6600 C.3   118  SER118      0.1924
     97  C         39.1410   35.8500   28.3870 C.2   118  SER118      0.2314
     98  O         38.8700   34.7330   27.9350 O.2   118  SER118     -0.2863
     99  CB        36.9380   36.3780   29.4130 C.3   118  SER118      0.2116
    100  OG        36.6160   37.3650   28.4480 O.3   118  SER118     -0.2180
    101  N         44.5590   31.6820   42.3290 N.3   137  HIS137     -0.1241
    102  CA        44.5400   32.7430   43.3270 C.3   137  HIS137      0.1621
    103  C         43.2190   32.7910   44.0740 C.2   137  HIS137      0.2264
    104  O         42.2250   32.2330   43.6270 O.2   137  HIS137     -0.2867
    105  CB        44.7600   34.0900   42.6340 C.3   137  HIS137      0.0745
    106  CG        43.6760   34.4470   41.6630 C.ar  137  HIS137      0.0817
    107  ND1       42.5180   35.0940   42.0420 N.ar  137  HIS137     -0.2268
    108  CD2       43.5520   34.2000   40.3380 C.ar  137  HIS137      0.1154
    109  CE1       41.7290   35.2300   40.9900 C.ar  137  HIS137      0.1986
    110  NE2       42.3320   34.6940   39.9440 N.ar  137  HIS137     -0.2212
    111  N         39.8600   34.4540   45.1600 N.3   139  VAL139     -0.1231
    112  CA        38.9840   35.3850   44.4620 C.3   139  VAL139      0.1692
    113  C         38.6840   36.6240   45.2990 C.2   139  VAL139      0.2592
    114  O         38.1500   36.5310   46.4070 O.2   139  VAL139     -0.2718
    115  CB        37.6540   34.7120   44.0720 C.3   139  VAL139      0.0266
    116  CG1       36.7210   35.7280   43.4290 C.3   139  VAL139      0.0020
    117  CG2       37.9170   33.5640   43.1120 C.3   139  VAL139      0.0020
    118  N         39.0500   37.7840   44.7660 N.am  140  ALA140     -0.1966
    119  CA        38.8100   39.0550   45.4380 C.3   140  ALA140      0.1728
    120  C         37.6760   39.7470   44.6980 C.2   140  ALA140      0.2616
    121  O         37.2310   39.2700   43.6550 O.2   140  ALA140     -0.2715
    122  CB        40.0630   39.9160   45.4070 C.3   140  ALA140      0.0334
    123  N         37.2030   40.8660   45.2310 N.am  141  GLU141     -0.1963
    124  CA        36.1140   41.5750   44.5840 C.3   141  GLU141      0.1733
    125  C         36.5510   42.0690   43.2060 C.2   141  GLU141      0.2616
    126  O         35.8060   41.9600   42.2340 O.2   141  GLU141     -0.2715
    127  CB        35.6470   42.7420   45.4540 C.3   141  GLU141      0.0429
    128  CG        34.2050   43.1470   45.1810 C.3   141  GLU141      0.1163
    129  CD        33.6750   44.1540   46.1840 C.2   141  GLU141      0.3649
    130  OE1       33.7370   43.8710   47.4000 O.co2 141  GLU141     -0.2457
    131  OE2       33.1920   45.2220   45.7550 O.co2 141  GLU141     -0.2457
    132  N         37.7660   42.5990   43.1180 N.am  142  ASP142     -0.1957
    133  CA        38.2780   43.0810   41.8400 C.3   142  ASP142      0.1840
    134  C         38.7820   41.8920   41.0190 C.2   142  ASP142      0.2622
    135  O         39.7280   41.2100   41.4120 O.2   142  ASP142     -0.2715
    136  CB        39.4080   44.0860   42.0660 C.3   142  ASP142      0.1450
    137  CG        39.7010   44.9100   40.8310 C.2   142  ASP142      0.3671
    138  OD1       40.1690   44.3340   39.8270 O.co2 142  ASP142     -0.2456
    139  OD2       39.4550   46.1340   40.8610 O.co2 142  ASP142     -0.2456
    140  N         38.1390   41.6570   39.8780 N.am  143  VAL143     -0.1963
    141  CA        38.4710   40.5460   38.9880 C.3   143  VAL143      0.1727
    142  C         39.9620   40.2590   38.7850 C.2   143  VAL143      0.2616
    143  O         40.7690   41.1720   38.5800 O.2   143  VAL143     -0.2715
    144  CB        37.8240   40.7410   37.5980 C.3   143  VAL143      0.0290
    145  CG1       38.1100   39.5360   36.7190 C.3   143  VAL143      0.0023
    146  CG2       36.3260   40.9410   37.7450 C.3   143  VAL143      0.0023
    147  N         40.3030   38.9700   38.8440 N.am  144  ASP144     -0.1957
    148  CA        41.6680   38.4810   38.6600 C.3   144  ASP144      0.1840
    149  C         42.7230   39.3000   39.3900 C.2   144  ASP144      0.2621
    150  O         43.7870   39.5730   38.8380 O.2   144  ASP144     -0.2715
    151  CB        41.9930   38.4390   37.1640 C.3   144  ASP144      0.1450
    152  CG        41.0310   37.5600   36.3850 C.2   144  ASP144      0.3671
    153  OD1       40.9640   37.7010   35.1460 O.co2 144  ASP144     -0.2456
    154  OD2       40.3450   36.7200   37.0110 O.co2 144  ASP144     -0.2456
    155  N         42.4380   39.6800   40.6340 N.am  145  ALA145     -0.1977
    156  CA        43.3800   40.4780   41.4100 C.3   145  ALA145      0.1597
    157  C         43.5930   39.9670   42.8340 C.2   145  ALA145      0.2287
    158  O         44.3360   40.5770   43.6060 O.2   145  ALA145     -0.2864
    159  CB        42.9240   41.9350   41.4420 C.3   145  ALA145      0.0319
@<TRIPOS>BOND
     1    98    97    2
     2    38    37    1
     3    97    96    1
     4   100    99    1
     5    37    36    1
     6    99    96    1
     7    96    95    1
     8    95    93   am
     9    36    35    1
    10    93    94    2
    11    93    92    1
    12    92    91    1
    13    35    32    1
    14    32    33    1
    15    32    31    1
    16    34    33    2
    17    89    90   ar
    18    89    87   ar
    19    90    88   ar
    20    33    39   am
    21    31    22   am
    22    49    47    1
    23    87    86   ar
    24    88    86   ar
    25    47    46    2
    26    47    48    1
    27    83    84    2
    28    83    82    1
    29    46    45    1
    30    86    85    1
    31    22    23    2
    32    22    21    1
    33    39    40    1
    34    45    44    1
    35    44    43    1
    36   153   152   ar
    37    20    21    1
    38    82    85    1
    39    82    81    1
    40    21    24    1
    41    40    43    1
    42    40    41    1
    43    57    55    1
    44    55    54    1
    45   152   154   ar
    46   152   151    1
    47    50    41   am
    48    50    51    1
    49   145   144    1
    50    41    42    2
    51    10     9    1
    52    24    25    1
    53    26    25   ar
    54    26    28   ar
    55   151   148    1
    56    54    51    1
    57    54    56    1
    58    25    27   ar
    59    28    30   ar
    60   144   146    1
    61   144   141    1
    62    51    52    1
    63     9    11    1
    64     9     8    2
    65    27    29   ar
    66    80    78   am
    67    30    29   ar
    68    79    78    2
    69     7     8    1
    70     7     6    1
    71   143   142    2
    72   148   147    1
    73   148   149    1
    74   142   147   am
    75   142   141    1
    76    53    52    2
    77     5     6    1
    78     5     2    1
    79   150   149    2
    80    78    77    1
    81    52    58   am
    82    15    14    2
    83   141   140    1
    84    14    13    1
    85     1     2    1
    86   149   155   am
    87     2     3    1
    88   138   137   ar
    89   140   134   am
    90   110   108   ar
    91   110   109   ar
    92    75    76    2
    93    75    74    1
    94    16    13    1
    95    16    17    1
    96    58    59    1
    97    13    12    1
    98   108   106   ar
    99    77    74    1
   100   155   156    1
   101    17    19    1
   102    17    18    1
   103    74    73    1
   104   137   139   ar
   105   137   136    1
   106   109   107   ar
   107   134   135    2
   108   134   133    1
   109     3     4    2
   110    59    60    1
   111    59    62    1
   112   156   159    1
   113   156   157    1
   114    65    63    1
   115   106   107   ar
   116   106   105    1
   117    63    62    1
   118    63    64    1
   119    61    60    2
   120   133   136    1
   121   133   132    1
   122   126   125    2
   123   101   102    1
   124   105   102    1
   125   157   158    2
   126   117   115    1
   127   132   125   am
   128   125   124    1
   129   102   103    1
   130   116   115    1
   131   104   103    2
   132   121   120    2
   133   115   112    1
   134   112   111    1
   135   112   113    1
   136   124   123    1
   137   124   127    1
   138   120   123   am
   139   120   119    1
   140   118   113   am
   141   118   119    1
   142    72    70    1
   143   128   127    1
   144   128   129    1
   145   113   114    2
   146   122   119    1
   147   131   129   ar
   148   129   130   ar
   149    70    71    1
   150    70    67    1
   151    66    67    1
   152    67    68    1
   153    68    69    2
