@<TRIPOS>MOLECULE
tmp/1zlyA00.pdb
 111 104 0 0 0
SMALL
GASTEIGER

@<TRIPOS>ATOM
      1  N         31.1610   25.4110   37.4100 N.3     7  ILE7       -0.1245
      2  CA        31.6150   25.3480   36.0250 C.3     7  ILE7        0.1561
      3  C         30.7140   26.0720   35.0210 C.2     7  ILE7        0.2260
      4  O         29.7410   26.7410   35.3920 O.2     7  ILE7       -0.2867
      5  CB        31.7490   23.8870   35.5610 C.3     7  ILE7        0.0252
      6  CG1       30.3740   23.2130   35.5740 C.3     7  ILE7        0.0019
      7  CG2       32.7240   23.1370   36.4680 C.3     7  ILE7        0.0019
      8  CD1       30.3770   21.8010   35.0280 C.3     7  ILE7        0.0001
      9  N         31.4030   24.8360   31.2920 N.3     9  GLY9       -0.1210
     10  CA        31.6190   24.0940   30.0620 C.3     9  GLY9        0.1956
     11  C         32.1130   22.6640   30.1810 C.2     9  GLY9        0.2613
     12  O         31.6330   21.8950   31.0120 O.2     9  GLY9       -0.2717
     13  N         33.0770   22.3140   29.3290 N.am   10  THR10      -0.1938
     14  CA        33.6610   20.9730   29.2790 C.3    10  THR10       0.2028
     15  C         34.0860   20.4510   30.6450 C.2    10  THR10       0.2643
     16  O         33.8060   19.3030   30.9920 O.2    10  THR10      -0.2714
     17  CB        34.8990   20.9390   28.3570 C.3    10  THR10       0.1808
     18  OG1       34.5630   21.4880   27.0780 O.3    10  THR10      -0.2208
     19  CG2       35.3830   19.5080   28.1710 C.3    10  THR10       0.0379
     20  N         34.7840   21.2950   31.4000 N.am   11  GLY11      -0.1939
     21  CA        35.2410   20.9170   32.7240 C.3    11  GLY11       0.2014
     22  C         36.4890   20.0540   32.7490 C.2    11  GLY11       0.2640
     23  O         36.4970   19.0040   33.3920 O.2    11  GLY11      -0.2714
     24  N         37.5450   20.4790   32.0560 N.am   12  SER12      -0.1935
     25  CA        38.7840   19.7070   32.0510 C.3    12  SER12       0.2055
     26  C         39.4990   19.8960   33.3900 C.2    12  SER12       0.2643
     27  O         40.1650   18.9780   33.8770 O.2    12  SER12      -0.2714
     28  CB        39.7010   20.1270   30.8940 C.3    12  SER12       0.2130
     29  OG        40.1860   21.4450   31.0560 O.3    12  SER12      -0.2179
     30  N         39.3590   21.0820   33.9830 N.am   13  ASN13      -0.1971
     31  CA        39.9770   21.3570   35.2790 C.3    13  ASN13       0.1688
     32  C         39.1830   20.6500   36.3820 C.2    13  ASN13       0.2292
     33  O         39.7470   20.2470   37.4020 O.2    13  ASN13      -0.2864
     34  CB        40.0380   22.8610   35.5500 C.3    13  ASN13       0.1181
     35  CG        41.3380   23.4850   35.0720 C.2    13  ASN13       0.2629
     36  OD1       42.4230   23.0720   35.4780 O.2    13  ASN13      -0.2716
     37  ND2       41.2340   24.4820   34.2100 N.am   13  ASN13      -0.0877
     38  N         36.3590   27.9080   41.4400 N.3    85  LEU85      -0.1231
     39  CA        35.8210   28.3820   40.1660 C.3    85  LEU85       0.1693
     40  C         36.6370   27.6870   39.0690 C.2    85  LEU85       0.2592
     41  O         37.8250   27.9600   38.9120 O.2    85  LEU85      -0.2718
     42  CB        35.9750   29.9050   40.0540 C.3    85  LEU85       0.0284
     43  CG        34.9400   30.8150   40.7350 C.3    85  LEU85       0.0019
     44  CD1       34.5030   30.2430   42.0620 C.3    85  LEU85       0.0001
     45  CD2       35.5280   32.1980   40.9160 C.3    85  LEU85       0.0001
     46  N         36.0050   26.7780   38.3300 N.am   86  ALA86      -0.1966
     47  CA        36.6860   26.0430   37.2680 C.3    86  ALA86       0.1728
     48  C         36.1080   26.3530   35.8860 C.2    86  ALA86       0.2616
     49  O         35.4220   25.5230   35.2870 O.2    86  ALA86      -0.2715
     50  CB        36.6100   24.5330   37.5420 C.3    86  ALA86       0.0334
     51  N         36.4020   27.5480   35.3800 N.am   87  GLY87      -0.1955
     52  CA        35.8980   27.9450   34.0780 C.3    87  GLY87       0.1869
     53  C         34.4970   28.5160   34.1860 C.2    87  GLY87       0.2309
     54  O         33.6800   28.3600   33.2810 O.2    87  GLY87      -0.2863
     55  N         40.3360   30.4300   42.1790 N.3   106  ASN106     -0.1225
     56  CA        40.1100   30.5300   40.7460 C.3   106  ASN106      0.1785
     57  C         41.3870   30.1920   39.9800 C.2   106  ASN106      0.2597
     58  O         42.4930   30.4830   40.4460 O.2   106  ASN106     -0.2718
     59  CB        39.6720   31.9450   40.3820 C.3   106  ASN106      0.1169
     60  CG        39.5190   32.1380   38.8880 C.2   106  ASN106      0.2627
     61  OD1       40.1050   33.0540   38.3070 O.2   106  ASN106     -0.2716
     62  ND2       38.7280   31.2770   38.2550 N.am  106  ASN106     -0.0877
     63  N         41.2280   29.5660   38.8170 N.am  107  ILE107     -0.1980
     64  CA        42.3620   29.2260   37.9530 C.3   107  ILE107      0.1595
     65  C         42.2760   30.1860   36.7590 C.2   107  ILE107      0.2287
     66  O         41.2200   30.3030   36.1330 O.2   107  ILE107     -0.2864
     67  CB        42.2750   27.7450   37.4600 C.3   107  ILE107      0.0276
     68  CG1       43.4230   27.4260   36.4910 C.3   107  ILE107      0.0022
     69  CG2       40.9380   27.4920   36.7890 C.3   107  ILE107      0.0022
     70  CD1       44.7570   27.1850   37.1670 C.3   107  ILE107      0.0001
     71  N         44.2920   31.4330   33.0780 N.3   109  PRO109     -0.2116
     72  CA        45.3090   31.1030   32.0720 C.3   109  PRO109      0.1372
     73  C         46.3830   32.1470   31.7110 C.2   109  PRO109      0.2244
     74  O         46.6150   32.4140   30.5360 O.2   109  PRO109     -0.2868
     75  CB        44.4630   30.6990   30.8690 C.3   109  PRO109      0.0268
     76  CG        43.3260   31.6830   30.9490 C.3   109  PRO109      0.0207
     77  CD        43.0010   31.7430   32.4350 C.3   109  PRO109      0.0892
     78  N         44.7830   34.3490   26.4210 N.3   121  HIS121     -0.1241
     79  CA        45.6520   33.8260   25.3700 C.3   121  HIS121      0.1621
     80  C         45.7510   34.7490   24.1600 C.2   121  HIS121      0.2264
     81  O         46.8360   34.9320   23.6110 O.2   121  HIS121     -0.2867
     82  CB        45.1950   32.4310   24.9370 C.3   121  HIS121      0.0745
     83  CG        45.3300   31.3960   26.0120 C.ar  121  HIS121      0.0817
     84  ND1       46.4710   31.2620   26.7760 N.ar  121  HIS121     -0.2268
     85  CD2       44.4710   30.4430   26.4500 C.ar  121  HIS121      0.1154
     86  CE1       46.3080   30.2730   27.6370 C.ar  121  HIS121      0.1986
     87  NE2       45.1040   29.7590   27.4600 N.ar  121  HIS121     -0.2212
     88  N         46.4900   27.2270   24.4450 N.3   166  SER166     -0.1217
     89  CA        45.5890   26.8520   25.5350 C.3   166  SER166      0.1889
     90  C         45.7510   25.3760   25.8930 C.2   166  SER166      0.2288
     91  O         45.5870   24.9820   27.0480 O.2   166  SER166     -0.2866
     92  CB        44.1270   27.1400   25.1590 C.3   166  SER166      0.2089
     93  OG        43.7230   26.3710   24.0430 O.3   166  SER166     -0.2183
     94  N         46.8330   24.2620   29.5660 N.3   170  LYS170     -0.1245
     95  CA        45.9140   23.3980   30.3250 C.3   170  LYS170      0.1561
     96  C         46.6610   22.3030   31.0700 C.2   170  LYS170      0.2260
     97  O         46.2600   21.9100   32.1620 O.2   170  LYS170     -0.2867
     98  CB        44.8760   22.7510   29.4100 C.3   170  LYS170      0.0271
     99  CG        43.6980   23.6460   29.0720 C.3   170  LYS170      0.0035
    100  CD        42.7330   22.9230   28.1400 C.3   170  LYS170      0.0206
    101  CE        41.5950   23.8240   27.6820 C.3   170  LYS170      0.1093
    102  NZ        40.6750   23.1080   26.7510 N.3   170  LYS170     -0.1314
    103  N         47.6790   23.8320   34.1930 N.3   173  GLU173     -0.1245
    104  CA        46.5150   24.1040   35.0310 C.3   173  GLU173      0.1567
    105  C         46.0800   22.8440   35.7750 C.2   173  GLU173      0.2260
    106  O         45.6830   22.9050   36.9330 O.2   173  GLU173     -0.2867
    107  CB        45.3500   24.6070   34.1720 C.3   173  GLU173      0.0388
    108  CG        45.5320   26.0120   33.5910 C.3   173  GLU173      0.1160
    109  CD        44.4420   26.3520   32.5720 C.2   173  GLU173      0.3649
    110  OE1       43.2740   25.9860   32.8150 O.co2 173  GLU173     -0.2457
    111  OE2       44.7450   26.9830   31.5360 O.co2 173  GLU173     -0.2457
@<TRIPOS>BOND
     1    81    80    2
     2    93    92    1
     3    80    79    1
     4    88    89    1
     5    82    79    1
     6    82    83    1
     7    92    89    1
     8    79    78    1
     9    89    90    1
    10    90    91    2
    11    83    85   ar
    12    83    84   ar
    13    85    87   ar
    14   102   101    1
    15    84    86   ar
    16    18    17    1
    17    87    86   ar
    18   101   100    1
    19   100    99    1
    20    19    17    1
    21    17    14    1
    22    99    98    1
    23    14    13    1
    24    14    15    1
    25    13    11   am
    26    98    95    1
    27    94    95    1
    28    10    11    1
    29    10     9    1
    30    11    12    2
    31    95    96    1
    32    74    73    2
    33    15    16    2
    34    15    20   am
    35    75    76    1
    36    75    72    1
    37    28    29    1
    38    28    25    1
    39    76    77    1
    40    96    97    2
    41    20    21    1
    42   111   109   ar
    43    73    72    1
    44    25    24    1
    45    25    26    1
    46    24    22   am
    47    72    71    1
    48    77    71    1
    49   109   110   ar
    50   109   108    1
    51    21    22    1
    52    22    23    2
    53    54    53    2
    54    26    27    2
    55    26    30   am
    56   108   107    1
    57    30    31    1
    58    52    53    1
    59    52    51    1
    60   107   104    1
    61   103   104    1
    62    37    35   am
    63     3     4    2
    64     3     2    1
    65     8     6    1
    66   104   105    1
    67    35    36    2
    68    35    34    1
    69    31    34    1
    70    31    32    1
    71    49    48    2
    72    51    48   am
    73     5     6    1
    74     5     2    1
    75     5     7    1
    76   105   106    2
    77    48    47    1
    78     2     1    1
    79    66    65    2
    80    32    33    2
    81    68    70    1
    82    68    67    1
    83    65    64    1
    84    69    67    1
    85    47    50    1
    86    47    46    1
    87    67    64    1
    88    64    63    1
    89    62    60   am
    90    61    60    2
    91    46    40   am
    92    63    57   am
    93    60    59    1
    94    41    40    2
    95    40    39    1
    96    57    58    2
    97    57    56    1
    98    42    39    1
    99    42    43    1
   100    39    38    1
   101    59    56    1
   102    43    45    1
   103    43    44    1
   104    56    55    1
