@<TRIPOS>MOLECULE
tmp/1zm1B00.pdb
 206 198 0 0 0
SMALL
GASTEIGER

@<TRIPOS>ATOM
      1  N         -9.5360   12.9970   78.1300 N.3     8  GLU8       -0.1245
      2  CA        -9.6550   12.4690   76.7810 C.3     8  GLU8        0.1567
      3  C         -8.2760   12.3780   76.1410 C.2     8  GLU8        0.2260
      4  O         -7.4970   13.3140   76.1980 O.2     8  GLU8       -0.2867
      5  CB       -10.5830   13.3320   75.9090 C.3     8  GLU8        0.0388
      6  CG       -10.7790   12.7320   74.5130 C.3     8  GLU8        0.1160
      7  CD       -11.8650   13.4040   73.6840 C.2     8  GLU8        0.3649
      8  OE1      -13.0040   13.5260   74.1690 O.co2   8  GLU8       -0.2457
      9  OE2      -11.5860   13.7910   72.5310 O.co2   8  GLU8       -0.2457
     10  N        -19.2530    7.4100   81.5720 N.3    31  VAL31      -0.1245
     11  CA       -18.9900    6.9040   80.2220 C.3    31  VAL31       0.1561
     12  C        -17.4900    6.6770   80.0650 C.2    31  VAL31       0.2260
     13  O        -16.6990    7.6140   80.1680 O.2    31  VAL31      -0.2867
     14  CB       -19.4300    7.8930   79.1150 C.3    31  VAL31       0.0252
     15  CG1      -19.0050    7.3560   77.7600 C.3    31  VAL31       0.0019
     16  CG2      -20.9370    8.0900   79.1460 C.3    31  VAL31       0.0019
     17  N        -14.8070    5.1390   77.3590 N.3    33  SER33      -0.1217
     18  CA       -14.8330    4.7310   75.9470 C.3    33  SER33       0.1889
     19  C        -13.5740    4.6470   75.0910 C.2    33  SER33       0.2288
     20  O        -12.4680    4.9700   75.5120 O.2    33  SER33      -0.2866
     21  CB       -15.7660    5.6690   75.2080 C.3    33  SER33       0.2089
     22  OG       -15.0760    6.8810   75.0020 O.3    33  SER33      -0.2183
     23  N        -13.1330    5.3950   70.7720 N.3    34  PHE34      -0.1241
     24  CA       -13.8730    5.7650   69.5750 C.3    34  PHE34       0.1605
     25  C        -13.0720    6.4100   68.4580 C.2    34  PHE34       0.2264
     26  O        -12.0250    7.0140   68.6860 O.2    34  PHE34      -0.2867
     27  CB       -15.0490    6.6830   69.9530 C.3    34  PHE34       0.0534
     28  CG       -14.6380    8.0100   70.5510 C.ar   34  PHE34      -0.0203
     29  CD1      -14.7320    9.1840   69.8070 C.ar   34  PHE34      -0.0042
     30  CD2      -14.1780    8.0920   71.8670 C.ar   34  PHE34      -0.0042
     31  CE1      -14.3770   10.4250   70.3630 C.ar   34  PHE34      -0.0003
     32  CE2      -13.8170    9.3350   72.4350 C.ar   34  PHE34      -0.0003
     33  CZ       -13.9200   10.4980   71.6780 C.ar   34  PHE34      -0.0000
     34  N        -13.0370    9.2340   65.6320 N.3    36  TYR36      -0.1241
     35  CA       -13.7060   10.5180   65.4990 C.3    36  TYR36       0.1605
     36  C        -13.1200   11.4420   64.4330 C.2    36  TYR36       0.2264
     37  O        -11.8970   11.5970   64.3220 O.2    36  TYR36      -0.2867
     38  CB       -13.6870   11.2360   66.8560 C.3    36  TYR36       0.0534
     39  CG       -14.5200   12.4970   66.9250 C.ar   36  TYR36      -0.0201
     40  CD1      -15.9090   12.4380   66.9290 C.ar   36  TYR36      -0.0009
     41  CD2      -13.9150   13.7480   67.0180 C.ar   36  TYR36      -0.0009
     42  CE1      -16.6810   13.5940   67.0310 C.ar   36  TYR36       0.0417
     43  CE2      -14.6750   14.9110   67.1190 C.ar   36  TYR36       0.0417
     44  CZ       -16.0580   14.8280   67.1240 C.ar   36  TYR36       0.1957
     45  OH       -16.8190   15.9770   67.2110 O.3    36  TYR36      -0.2866
     46  N        -12.6210   14.8650   63.7450 N.3    38  ASN38      -0.1240
     47  CA       -12.6310   16.1550   64.4020 C.3    38  ASN38       0.1653
     48  C        -13.3050   17.1960   63.5280 C.2    38  ASN38       0.2266
     49  O        -13.0860   17.2400   62.3140 O.2    38  ASN38      -0.2867
     50  CB       -11.2170   16.6140   64.7240 C.3    38  ASN38       0.1155
     51  CG       -11.1990   17.7210   65.7530 C.2    38  ASN38       0.2627
     52  OD1      -10.2610   18.5120   65.8180 O.2    38  ASN38      -0.2716
     53  ND2      -12.2370   17.7710   66.5780 N.am   38  ASN38      -0.0877
     54  N        -18.3940   18.2030   65.3120 N.3    41  GLU41      -0.1245
     55  CA       -19.2700   18.9240   66.2300 C.3    41  GLU41       0.1567
     56  C        -19.6960   20.3060   65.7420 C.2    41  GLU41       0.2260
     57  O        -20.5770   20.9300   66.3400 O.2    41  GLU41      -0.2867
     58  CB       -18.6300   19.0290   67.6260 C.3    41  GLU41       0.0388
     59  CG       -17.4710   20.0080   67.7680 C.3    41  GLU41       0.1160
     60  CD       -16.2080   19.5760   67.0420 C.2    41  GLU41       0.3649
     61  OE1      -16.0780   18.3740   66.7170 O.co2  41  GLU41      -0.2457
     62  OE2      -15.3350   20.4400   66.8110 O.co2  41  GLU41      -0.2457
     63  N        -21.2770   14.4320   60.2150 N.3    48  TRP48      -0.1241
     64  CA       -20.7270   13.9230   61.4580 C.3    48  TRP48       0.1605
     65  C        -20.2010   12.5220   61.1190 C.2    48  TRP48       0.2264
     66  O        -20.9140   11.7280   60.5030 O.2    48  TRP48      -0.2867
     67  CB       -21.8360   13.8350   62.5180 C.3    48  TRP48       0.0550
     68  CG       -21.3540   13.5950   63.9310 C.ar   48  TRP48       0.0003
     69  CD1      -20.6340   12.5250   64.3850 C.ar   48  TRP48       0.0946
     70  CD2      -21.5540   14.4540   65.0670 C.ar   48  TRP48       0.0152
     71  NE1      -20.3730   12.6670   65.7320 N.ar   48  TRP48      -0.2442
     72  CE2      -20.9260   13.8390   66.1730 C.ar   48  TRP48       0.0810
     73  CE3      -22.2030   15.6840   65.2550 C.ar   48  TRP48       0.0012
     74  CZ2      -20.9260   14.4140   67.4520 C.ar   48  TRP48       0.0191
     75  CZ3      -22.2030   16.2580   66.5310 C.ar   48  TRP48       0.0001
     76  CH2      -21.5660   15.6190   67.6110 C.ar   48  TRP48       0.0015
     77  N        -18.2460    9.2520   63.0280 N.3    50  GLU50      -0.1245
     78  CA       -17.7930    8.7170   64.2990 C.3    50  GLU50       0.1567
     79  C        -18.2490    7.2890   64.5440 C.2    50  GLU50       0.2260
     80  O        -19.3740    6.9220   64.1950 O.2    50  GLU50      -0.2867
     81  CB       -18.3410    9.6060   65.4200 C.3    50  GLU50       0.0388
     82  CG       -17.7760    9.3450   66.8030 C.3    50  GLU50       0.1160
     83  CD       -18.4490   10.1960   67.8780 C.2    50  GLU50       0.3649
     84  OE1      -18.9390   11.3090   67.5660 O.co2  50  GLU50      -0.2457
     85  OE2      -18.4770    9.7550   69.0440 O.co2  50  GLU50      -0.2457
     86  N        -18.2430    4.4970   67.8120 N.3    52  ASP52      -0.1239
     87  CA       -18.0000    4.3930   69.2470 C.3    52  ASP52       0.1674
     88  C        -18.0760    3.0290   69.9090 C.2    52  ASP52       0.2266
     89  O        -18.6500    2.0740   69.3870 O.2    52  ASP52      -0.2867
     90  CB       -18.9810    5.2810   70.0200 C.3    52  ASP52       0.1410
     91  CG       -18.9950    6.7020   69.5410 C.2    52  ASP52       0.3668
     92  OD1      -17.9580    7.3820   69.6540 O.co2  52  ASP52      -0.2456
     93  OD2      -20.0540    7.1430   69.0560 O.co2  52  ASP52      -0.2456
     94  N        -18.7630    2.5030   74.0000 N.3    54  GLU54      -0.1245
     95  CA       -18.9840    3.2280   75.2390 C.3    54  GLU54       0.1567
     96  C        -19.5020    2.3610   76.3640 C.2    54  GLU54       0.2260
     97  O        -20.5910    1.7870   76.2690 O.2    54  GLU54      -0.2867
     98  CB       -19.9880    4.3710   75.0270 C.3    54  GLU54       0.0388
     99  CG       -19.4760    5.5840   74.2650 C.3    54  GLU54       0.1160
    100  CD       -20.5900    6.5730   73.9290 C.2    54  GLU54       0.3649
    101  OE1      -21.4960    6.2200   73.1460 O.co2  54  GLU54      -0.2457
    102  OE2      -20.5650    7.7060   74.4490 O.co2  54  GLU54      -0.2457
    103  N        -21.8970    2.1220   68.4330 N.3    66  ASN66      -0.1240
    104  CA       -22.6630    3.1440   67.7480 C.3    66  ASN66       0.1653
    105  C        -21.8920    3.7250   66.5850 C.2    66  ASN66       0.2266
    106  O        -20.6630    3.7420   66.5900 O.2    66  ASN66      -0.2867
    107  CB       -23.0170    4.2580   68.7350 C.3    66  ASN66       0.1155
    108  CG       -24.1090    5.1730   68.2230 C.2    66  ASN66       0.2627
    109  OD1      -24.9280    4.7810   67.3950 O.2    66  ASN66      -0.2716
    110  ND2      -24.1410    6.3930   68.7380 N.am   66  ASN66      -0.0877
    111  N        -22.2080    7.2290   64.3230 N.3    68  ILE68      -0.1245
    112  CA       -22.9410    8.4630   64.2050 C.3    68  ILE68       0.1561
    113  C        -22.6740    9.1020   62.8530 C.2    68  ILE68       0.2260
    114  O        -21.5250    9.3210   62.4660 O.2    68  ILE68      -0.2867
    115  CB       -22.5540    9.4430   65.3240 C.3    68  ILE68       0.0252
    116  CG1      -22.7140    8.7570   66.6880 C.3    68  ILE68       0.0019
    117  CG2      -23.4090   10.7160   65.2200 C.3    68  ILE68       0.0019
    118  CD1      -22.2980    9.6260   67.8760 C.3    68  ILE68       0.0001
    119  N        -28.5110   14.0670   63.9640 N.3    75  GLN75      -0.1245
    120  CA       -27.6830   12.8730   63.8320 C.3    75  GLN75       0.1566
    121  C        -28.4340   11.6080   63.4410 C.2    75  GLN75       0.2260
    122  O        -29.6240   11.4740   63.6860 O.2    75  GLN75      -0.2867
    123  CB       -26.9510   12.6110   65.1480 C.3    75  GLN75       0.0367
    124  CG       -26.0180   13.7200   65.5810 C.3    75  GLN75       0.0905
    125  CD       -25.3160   13.4100   66.8940 C.2    75  GLN75       0.2608
    126  OE1      -24.1860   13.8470   67.1260 O.2    75  GLN75      -0.2717
    127  NE2      -25.9850   12.6600   67.7610 N.am   75  GLN75      -0.0878
    128  N         -9.6500    8.0070   69.5660 N.3   131  ARG131     -0.1245
    129  CA        -9.7830    8.7030   70.8470 C.3   131  ARG131      0.1563
    130  C        -10.3120    7.8340   71.9880 C.2   131  ARG131      0.2260
    131  O        -10.8750    6.7610   71.7710 O.2   131  ARG131     -0.2867
    132  CB       -10.7110    9.9190   70.6900 C.3   131  ARG131      0.0307
    133  CG       -10.2810   10.8920   69.6060 C.3   131  ARG131      0.0489
    134  CD       -10.8700   12.2880   69.7900 C.3   131  ARG131      0.2205
    135  NE       -10.3930   13.1820   68.7310 N.pl3 131  ARG131     -0.0865
    136  CZ       -10.5510   14.5030   68.7200 C.cat 131  ARG131      0.5346
    137  NH1      -10.0760   15.2210   67.7070 N.pl3 131  ARG131      0.1354
    138  NH2      -11.1760   15.1080   69.7210 N.pl3 131  ARG131      0.1354
    139  N        -12.0530    8.6370   76.0930 N.3   133  ASN133     -0.1240
    140  CA       -12.3730    9.6150   77.1150 C.3   133  ASN133      0.1653
    141  C        -13.0910    9.0090   78.3160 C.2   133  ASN133      0.2266
    142  O        -13.5630    7.8620   78.2740 O.2   133  ASN133     -0.2867
    143  CB       -13.1670   10.8090   76.5350 C.3   133  ASN133      0.1155
    144  CG       -14.4650   10.4090   75.8550 C.2   133  ASN133      0.2627
    145  OD1      -15.0180    9.3370   76.0940 O.2   133  ASN133     -0.2716
    146  ND2      -14.9730   11.3000   75.0130 N.am  133  ASN133     -0.0877
    147  N        -15.8530   10.4710   81.1700 N.3   135  TRP135     -0.1241
    148  CA       -16.6860   11.5670   81.6300 C.3   135  TRP135      0.1605
    149  C        -17.9980   11.0580   82.2110 C.2   135  TRP135      0.2264
    150  O        -18.1210    9.8780   82.5340 O.2   135  TRP135     -0.2867
    151  CB       -16.9600   12.5270   80.4630 C.3   135  TRP135      0.0550
    152  CG       -17.5110   11.8630   79.2270 C.ar  135  TRP135      0.0003
    153  CD1      -16.8580   10.9930   78.3990 C.ar  135  TRP135      0.0946
    154  CD2      -18.8230   12.0320   78.6760 C.ar  135  TRP135      0.0152
    155  NE1      -17.6830   10.6120   77.3630 N.ar  135  TRP135     -0.2442
    156  CE2      -18.8940   11.2370   77.5100 C.ar  135  TRP135      0.0810
    157  CE3      -19.9460   12.7780   79.0530 C.ar  135  TRP135      0.0012
    158  CZ2      -20.0510   11.1700   76.7180 C.ar  135  TRP135      0.0191
    159  CZ3      -21.1000   12.7080   78.2640 C.ar  135  TRP135      0.0001
    160  CH2      -21.1390   11.9110   77.1130 C.ar  135  TRP135      0.0015
    161  N        -29.8150    7.1810   80.1060 N.3   142  TRP142     -0.1241
    162  CA       -28.7350    6.6040   79.3150 C.3   142  TRP142      0.1605
    163  C        -27.5920    6.0200   80.1470 C.2   142  TRP142      0.2264
    164  O        -27.0350    4.9790   79.7970 O.2   142  TRP142     -0.2867
    165  CB       -28.1870    7.6760   78.3630 C.3   142  TRP142      0.0550
    166  CG       -27.1940    7.1890   77.3390 C.ar  142  TRP142      0.0003
    167  CD1      -27.3450    6.1310   76.4880 C.ar  142  TRP142      0.0946
    168  CD2      -25.9390    7.8020   77.0000 C.ar  142  TRP142      0.0152
    169  NE1      -26.2640    6.0510   75.6370 N.ar  142  TRP142     -0.2442
    170  CE2      -25.3870    7.0630   75.9300 C.ar  142  TRP142      0.0810
    171  CE3      -25.2310    8.9060   77.4960 C.ar  142  TRP142      0.0012
    172  CZ2      -24.1560    7.3950   75.3430 C.ar  142  TRP142      0.0191
    173  CZ3      -24.0040    9.2370   76.9100 C.ar  142  TRP142      0.0001
    174  CH2      -23.4820    8.4810   75.8450 C.ar  142  TRP142      0.0015
    175  N        -11.4230   20.4480   77.0170 N.3   197  TRP197     -0.1227
    176  CA       -12.6710   21.1280   76.7250 C.3   197  TRP197      0.1737
    177  C        -13.8000   20.3720   77.4030 C.2   197  TRP197      0.2596
    178  O        -13.5640   19.5610   78.2980 O.2   197  TRP197     -0.2718
    179  CB       -12.8990   21.1760   75.2120 C.3   197  TRP197      0.0564
    180  CG       -12.8430   19.8220   74.5450 C.ar  197  TRP197      0.0003
    181  CD1      -13.8310   18.8740   74.5130 C.ar  197  TRP197      0.0946
    182  CD2      -11.7250   19.2580   73.8430 C.ar  197  TRP197      0.0152
    183  NE1      -13.3950   17.7590   73.8350 N.ar  197  TRP197     -0.2442
    184  CE2      -12.1070   17.9690   73.4140 C.ar  197  TRP197      0.0810
    185  CE3      -10.4400   19.7180   73.5360 C.ar  197  TRP197      0.0012
    186  CZ2      -11.2430   17.1340   72.6930 C.ar  197  TRP197      0.0191
    187  CZ3       -9.5830   18.8860   72.8190 C.ar  197  TRP197      0.0001
    188  CH2       -9.9900   17.6110   72.4070 C.ar  197  TRP197      0.0015
    189  N        -15.0240   20.6530   76.9730 N.am  198  THR198     -0.1939
    190  CA       -16.2140   19.9960   77.4990 C.3   198  THR198      0.2028
    191  C        -17.3050   20.2040   76.4630 C.2   198  THR198      0.2642
    192  O        -17.0800   20.8550   75.4410 O.2   198  THR198     -0.2714
    193  CB       -16.6760   20.6140   78.8640 C.3   198  THR198      0.1808
    194  OG1      -17.7940   19.8730   79.3820 O.3   198  THR198     -0.2208
    195  CG2      -17.0900   22.0780   78.6860 C.3   198  THR198      0.0379
    196  N        -18.4800   19.6470   76.7170 N.am  199  PHE199     -0.1973
    197  CA       -19.5990   19.8100   75.8100 C.3   199  PHE199      0.1639
    198  C        -20.9180   19.6080   76.5380 C.2   199  PHE199      0.2290
    199  O        -20.9520   19.0750   77.6470 O.2   199  PHE199     -0.2864
    200  CB       -19.4570   18.8530   74.6230 C.3   199  PHE199      0.0560
    201  CG       -19.1250   17.4400   75.0080 C.ar  199  PHE199     -0.0200
    202  CD1      -20.1270   16.5400   75.3530 C.ar  199  PHE199     -0.0042
    203  CD2      -17.8070   16.9990   74.9980 C.ar  199  PHE199     -0.0042
    204  CE1      -19.8190   15.2170   75.6760 C.ar  199  PHE199     -0.0003
    205  CE2      -17.4930   15.6790   75.3200 C.ar  199  PHE199     -0.0003
    206  CZ       -18.5030   14.7880   75.6590 C.ar  199  PHE199     -0.0000
@<TRIPOS>BOND
     1    63    64    1
     2    66    65    2
     3    65    64    1
     4    64    67    1
     5    49    48    2
     6   114   113    2
     7    67    68    1
     8   113   112    1
     9    77    78    1
    10   121   122    2
    11   121   120    1
    12    48    47    1
    13    46    47    1
    14   120   119    1
    15   120   123    1
    16    68    69   ar
    17    68    70   ar
    18    80    79    2
    19   112   111    1
    20   112   115    1
    21    78    79    1
    22    78    81    1
    23    37    36    2
    24    69    71   ar
    25    47    50    1
    26    36    35    1
    27    50    51    1
    28    70    73   ar
    29    70    72   ar
    30   123   124    1
    31   117   115    1
    32    73    75   ar
    33    54    55    1
    34   115   116    1
    35    81    82    1
    36    35    34    1
    37    35    38    1
    38   124   125    1
    39    71    72   ar
    40    56    55    1
    41    56    57    2
    42    51    52    2
    43    51    53   am
    44    72    74   ar
    45    55    58    1
    46    75    76   ar
    47   105   106    2
    48   105   104    1
    49   116   118    1
    50    61    60   ar
    51    82    83    1
    52    62    60   ar
    53    38    39    1
    54   125   126    2
    55   125   127   am
    56    39    40   ar
    57    39    41   ar
    58    40    42   ar
    59    41    43   ar
    60    42    44   ar
    61    60    59    1
    62    43    44   ar
    63    44    45    1
    64   109   108    2
    65    74    76   ar
    66    84    83   ar
    67    58    59    1
    68   137   136    1
    69   104   103    1
    70   104   107    1
    71    86    87    1
    72    83    85   ar
    73   108   107    1
    74   108   110   am
    75    25    26    2
    76    25    24    1
    77   136   135    2
    78   136   138    1
    79   135   134    1
    80    93    91   ar
    81    87    88    1
    82    87    90    1
    83    89    88    2
    84    91    92   ar
    85    91    90    1
    86   128   129    1
    87    24    27    1
    88    24    23    1
    89   133   134    1
    90   133   132    1
    91    29    31   ar
    92    29    28   ar
    93    27    28    1
    94    31    33   ar
    95    28    30   ar
    96   132   129    1
    97   129   130    1
    98    33    32   ar
    99   131   130    2
   100    30    32   ar
   101   188   186   ar
   102   188   187   ar
   103     9     7   ar
   104   186   184   ar
   105   187   185   ar
   106   101   100   ar
   107   184   183   ar
   108   184   182   ar
   109   185   182   ar
   110     7     8   ar
   111     7     6    1
   112   183   181   ar
   113   182   180   ar
   114   100    99    1
   115   100   102   ar
   116    94    95    1
   117    99    98    1
   118   181   180   ar
   119     6     5    1
   120   180   179    1
   121   200   201    1
   122   200   197    1
   123   203   201   ar
   124   203   205   ar
   125    22    21    1
   126   201   202   ar
   127   146   144   am
   128    98    95    1
   129    19    20    2
   130    19    18    1
   131    21    18    1
   132   179   176    1
   133    95    96    1
   134   205   206   ar
   135   172   174   ar
   136   172   170   ar
   137   202   204   ar
   138   192   191    2
   139   169   170   ar
   140   169   167   ar
   141   206   204   ar
   142   197   198    1
   143   197   196    1
   144   174   173   ar
   145   144   145    2
   146   144   143    1
   147     5     2    1
   148   170   168   ar
   149    18    17    1
   150   139   140    1
   151     3     4    2
   152     3     2    1
   153    97    96    2
   154   191   196   am
   155   191   190    1
   156   167   166   ar
   157   143   140    1
   158   198   199    2
   159   158   160   ar
   160   158   156   ar
   161   176   175    1
   162   176   177    1
   163     2     1    1
   164   173   171   ar
   165   189   177   am
   166   189   190    1
   167   168   166   ar
   168   168   171   ar
   169   160   159   ar
   170   140   141    1
   171   166   165    1
   172   155   156   ar
   173   155   153   ar
   174   177   178    2
   175   190   193    1
   176   156   154   ar
   177    15    14    1
   178   159   157   ar
   179   142   141    2
   180   165   162    1
   181   153   152   ar
   182   154   157   ar
   183   154   152   ar
   184   195   193    1
   185   193   194    1
   186    14    16    1
   187    14    11    1
   188   152   151    1
   189   162   161    1
   190   162   163    1
   191   164   163    2
   192    12    13    2
   193    12    11    1
   194    11    10    1
   195   151   148    1
   196   147   148    1
   197   148   149    1
   198   149   150    2
