@<TRIPOS>MOLECULE
tmp/1zm4B00.pdb
 206 202 0 0 0
SMALL
GASTEIGER

@<TRIPOS>ATOM
      1  N         15.6540  -10.8340   89.5160 N.3    41  TYR41      -0.1227
      2  CA        14.8250  -10.3860   88.3990 C.3    41  TYR41       0.1736
      3  C         13.5040   -9.8560   88.9050 C.2    41  TYR41       0.2595
      4  O         12.9840  -10.3380   89.9240 O.2    41  TYR41      -0.2718
      5  CB        14.4960  -11.5390   87.4620 C.3    41  TYR41       0.0548
      6  CG        15.6460  -12.0200   86.6260 C.ar   41  TYR41      -0.0200
      7  CD1       15.8800  -11.4900   85.3650 C.ar   41  TYR41      -0.0009
      8  CD2       16.4920  -13.0210   87.0910 C.ar   41  TYR41      -0.0009
      9  CE1       16.9220  -11.9430   84.5910 C.ar   41  TYR41       0.0417
     10  CE2       17.5360  -13.4770   86.3190 C.ar   41  TYR41       0.0417
     11  CZ        17.7460  -12.9380   85.0790 C.ar   41  TYR41       0.1957
     12  OH        18.7990  -13.3960   84.3340 O.3    41  TYR41      -0.2866
     13  N         12.9720   -8.8580   88.1980 N.am   42  HIS42      -0.1961
     14  CA        11.6640   -8.3060   88.5350 C.3    42  HIS42       0.1787
     15  C         10.8700   -8.2230   87.2460 C.2    42  HIS42       0.2621
     16  O         11.3150   -7.6090   86.2810 O.2    42  HIS42      -0.2715
     17  CB        11.7740   -6.9160   89.1460 C.3    42  HIS42       0.0785
     18  CG        10.4540   -6.2410   89.3550 C.ar   42  HIS42       0.0821
     19  ND1        9.6470   -6.5030   90.4380 N.ar   42  HIS42      -0.2267
     20  CD2        9.8130   -5.2950   88.6280 C.ar   42  HIS42       0.1154
     21  CE1        8.5690   -5.7400   90.3780 C.ar   42  HIS42       0.1986
     22  NE2        8.6440   -4.9950   89.2900 N.ar   42  HIS42      -0.2212
     23  N          9.7120   -8.8790   87.2310 N.am   43  GLY43      -0.1940
     24  CA         8.8520   -8.8770   86.0570 C.3    43  GLY43       0.2014
     25  C          7.6820   -7.9240   86.2110 C.2    43  GLY43       0.2640
     26  O          7.0770   -7.8280   87.2800 O.2    43  GLY43      -0.2714
     27  N          7.3370   -7.2300   85.1370 N.am   44  THR44      -0.1936
     28  CA         6.2460   -6.2750   85.2260 C.3    44  THR44       0.2028
     29  C          5.7720   -5.7460   83.8850 C.2    44  THR44       0.2642
     30  O          6.3020   -6.1020   82.8330 O.2    44  THR44      -0.2714
     31  CB         6.6890   -5.0930   86.0840 C.3    44  THR44       0.1808
     32  OG1        5.6320   -4.1420   86.1880 O.3    44  THR44      -0.2208
     33  CG2        7.9030   -4.4380   85.4630 C.3    44  THR44       0.0379
     34  N          4.7670   -4.8820   83.9220 N.am   45  PHE45      -0.1973
     35  CA         4.2490   -4.2930   82.6950 C.3    45  PHE45       0.1639
     36  C          5.1130   -3.1690   82.1630 C.2    45  PHE45       0.2290
     37  O          5.7890   -2.4710   82.9080 O.2    45  PHE45      -0.2864
     38  CB         2.8270   -3.7900   82.8720 C.3    45  PHE45       0.0560
     39  CG         2.6420   -2.8240   84.0040 C.ar   45  PHE45      -0.0200
     40  CD1        2.6580   -3.2700   85.3300 C.ar   45  PHE45      -0.0042
     41  CD2        2.3240   -1.4800   83.7460 C.ar   45  PHE45      -0.0042
     42  CE1        2.3490   -2.4080   86.3810 C.ar   45  PHE45      -0.0003
     43  CE2        2.0080   -0.6100   84.7820 C.ar   45  PHE45      -0.0003
     44  CZ         2.0180   -1.0760   86.1090 C.ar   45  PHE45      -0.0000
     45  N          5.4010    0.1030   83.8320 N.3    48  ALA48      -0.1245
     46  CA         6.1600   -0.1230   85.0680 C.3    48  ALA48       0.1562
     47  C          7.6610   -0.2400   84.7730 C.2    48  ALA48       0.2260
     48  O          8.4720    0.4340   85.3870 O.2    48  ALA48      -0.2867
     49  CB         5.6750   -1.3920   85.7560 C.3    48  ALA48       0.0290
     50  N          9.2010    3.0910   84.1380 N.3    51  SER51      -0.1202
     51  CA         9.2840    3.8260   85.3770 C.3    51  SER51       0.2020
     52  C         10.4880    3.3870   86.2040 C.2    51  SER51       0.2618
     53  O         11.3450    4.2080   86.5580 O.2    51  SER51      -0.2717
     54  CB         7.9880    3.6070   86.1550 C.3    51  SER51       0.2103
     55  OG         8.0140    4.2810   87.3900 O.3    51  SER51      -0.2182
     56  N         10.5570    2.0890   86.4960 N.am   52  ILE52      -0.1979
     57  CA        11.6450    1.5400   87.2940 C.3    52  ILE52       0.1595
     58  C         13.0260    1.8620   86.7180 C.2    52  ILE52       0.2287
     59  O         13.9040    2.3010   87.4480 O.2    52  ILE52      -0.2864
     60  CB        11.5000    0.0030   87.4540 C.3    52  ILE52       0.0276
     61  CG1       10.2030   -0.3160   88.2110 C.3    52  ILE52       0.0022
     62  CG2       12.6920   -0.5590   88.1930 C.3    52  ILE52       0.0022
     63  CD1        9.9560   -1.7620   88.4390 C.3    52  ILE52       0.0001
     64  N         13.6590    6.3390   86.4730 N.3    55  GLY55      -0.1210
     65  CA        12.9610    7.0920   87.4860 C.3    55  GLY55       0.1956
     66  C         13.2920    6.4300   88.7740 C.2    55  GLY55       0.2612
     67  O         13.2940    7.0600   89.8350 O.2    55  GLY55      -0.2717
     68  N         13.5730    5.1310   88.6710 N.am   56  GLY56      -0.1942
     69  CA        13.9770    4.3790   89.8410 C.3    56  GLY56       0.2014
     70  C         12.9180    3.6370   90.5830 C.2    56  GLY56       0.2639
     71  O         11.8040    4.0180   90.5400 O.2    56  GLY56      -0.2714
     72  N         13.2800    2.5600   91.2290 N.am   57  VAL57      -0.1963
     73  CA        12.2780    1.8630   92.0260 C.3    57  VAL57       0.1727
     74  C         11.8860    2.8500   93.1250 C.2    57  VAL57       0.2616
     75  O         12.7390    3.3530   93.8460 O.2    57  VAL57      -0.2715
     76  CB        12.8280    0.5660   92.6540 C.3    57  VAL57       0.0290
     77  CG1       11.7640   -0.1020   93.5090 C.3    57  VAL57       0.0023
     78  CG2       13.3400   -0.3660   91.5620 C.3    57  VAL57       0.0023
     79  N         10.5810    3.1210   93.2660 N.am   58  ARG58      -0.1977
     80  CA        10.1030    4.0640   94.2880 C.3    58  ARG58       0.1597
     81  C          8.9230    3.4690   95.0200 C.2    58  ARG58       0.2287
     82  O          7.8880    3.2110   94.3900 O.2    58  ARG58      -0.2864
     83  CB         9.6010    5.3980   93.6670 C.3    58  ARG58       0.0334
     84  CG        10.5380    6.2460   92.8230 C.3    58  ARG58       0.0492
     85  CD        11.9890    5.7640   92.8870 C.3    58  ARG58       0.2205
     86  NE        12.8820    6.7510   93.5190 N.pl3  58  ARG58      -0.0865
     87  CZ        14.2160    6.6420   93.5480 C.cat  58  ARG58       0.5346
     88  NH1       14.8040    5.6150   92.9550 N.pl3  58  ARG58       0.1354
     89  NH2       14.9370    7.5500   94.1740 N.pl3  58  ARG58       0.1354
     90  N          5.6900    4.0930   96.8130 N.3    60  ARG60      -0.1245
     91  CA         4.9170    5.3330   96.6200 C.3    60  ARG60       0.1563
     92  C          3.5780    5.1990   97.3130 C.2    60  ARG60       0.2260
     93  O          2.5720    4.7110   96.7470 O.2    60  ARG60      -0.2867
     94  CB         4.6740    5.6570   95.1370 C.3    60  ARG60       0.0307
     95  CG         5.7130    6.5690   94.5120 C.3    60  ARG60       0.0489
     96  CD         5.1150    7.4780   93.4110 C.3    60  ARG60       0.2205
     97  NE         6.0970    7.9010   92.3960 N.pl3  60  ARG60      -0.0865
     98  CZ         6.4460    7.1590   91.3280 C.cat  60  ARG60       0.5346
     99  NH1        5.8930    5.9580   91.1130 N.pl3  60  ARG60       0.1354
    100  NH2        7.3780    7.6050   90.4880 N.pl3  60  ARG60       0.1354
    101  N          2.4970    3.5440  100.6590 N.3    62  GLN62      -0.1245
    102  CA         2.3360    2.1480  101.0100 C.3    62  GLN62       0.1566
    103  C          1.3970    2.0590  102.2010 C.2    62  GLN62       0.2260
    104  O          1.0660    3.0840  102.8020 O.2    62  GLN62      -0.2867
    105  CB         3.6860    1.5440  101.3620 C.3    62  GLN62       0.0367
    106  CG         4.7050    1.5870  100.2490 C.3    62  GLN62       0.0905
    107  CD         4.4570    0.4490   99.3230 C.2    62  GLN62       0.2608
    108  OE1        3.8150   -0.5440   99.6800 O.2    62  GLN62      -0.2717
    109  NE2        4.8550    0.3560   98.0660 N.am   62  GLN62      -0.0878
    110  N          7.2220   -4.0290  100.4700 N.3    70  GLY70      -0.1210
    111  CA         8.5530   -3.9570   99.8950 C.3    70  GLY70       0.1956
    112  C          8.5600   -4.2330   98.4030 C.2    70  GLY70       0.2612
    113  O          7.5170   -4.4440   97.8080 O.2    70  GLY70      -0.2717
    114  N          9.7340   -4.2240   97.7940 N.am   71  PHE71      -0.1962
    115  CA         9.8570   -4.4630   96.3690 C.3    71  PHE71       0.1771
    116  C         10.2080   -5.9220   96.2000 C.2    71  PHE71       0.2620
    117  O         11.2190   -6.3900   96.7330 O.2    71  PHE71      -0.2715
    118  CB        10.9620   -3.5890   95.7870 C.3    71  PHE71       0.0574
    119  CG        11.0770   -3.6650   94.3070 C.ar   71  PHE71      -0.0200
    120  CD1       10.0720   -3.1690   93.4990 C.ar   71  PHE71      -0.0042
    121  CD2       12.2170   -4.1890   93.7130 C.ar   71  PHE71      -0.0042
    122  CE1       10.1920   -3.1840   92.1060 C.ar   71  PHE71      -0.0003
    123  CE2       12.3590   -4.2160   92.3070 C.ar   71  PHE71      -0.0003
    124  CZ        11.3360   -3.7090   91.5030 C.ar   71  PHE71      -0.0000
    125  N          9.3700   -6.6360   95.4490 N.am   72  TYR72      -0.1960
    126  CA         9.5710   -8.0640   95.2170 C.3    72  TYR72       0.1771
    127  C         10.3390   -8.3970   93.9470 C.2    72  TYR72       0.2619
    128  O         10.0790   -7.8320   92.8980 O.2    72  TYR72      -0.2715
    129  CB         8.2210   -8.7820   95.1910 C.3    72  TYR72       0.0574
    130  CG         7.5480   -8.8410   96.5310 C.ar   72  TYR72      -0.0198
    131  CD1        6.9720   -7.7130   97.0790 C.ar   72  TYR72      -0.0009
    132  CD2        7.4480  -10.0390   97.2290 C.ar   72  TYR72      -0.0009
    133  CE1        6.3000   -7.7610   98.2830 C.ar   72  TYR72       0.0417
    134  CE2        6.7710  -10.1110   98.4360 C.ar   72  TYR72       0.0417
    135  CZ         6.1900   -8.9600   98.9700 C.ar   72  TYR72       0.1957
    136  OH         5.4960   -9.0090  100.1810 O.3    72  TYR72      -0.2866
    137  N         11.3090   -9.2940   94.0660 N.am   73  ILE73      -0.1963
    138  CA        12.0860   -9.7400   92.9210 C.3    73  ILE73       0.1727
    139  C         12.3230  -11.2560   93.0530 C.2    73  ILE73       0.2616
    140  O         11.8510  -11.8930   94.0020 O.2    73  ILE73      -0.2715
    141  CB        13.4610   -8.9960   92.7940 C.3    73  ILE73       0.0290
    142  CG1       14.2750   -9.0860   94.0850 C.3    73  ILE73       0.0022
    143  CG2       13.2450   -7.5980   92.3920 C.3    73  ILE73       0.0023
    144  CD1       15.6950   -8.6040   93.9080 C.3    73  ILE73       0.0001
    145  N         13.0650  -11.8350   92.1160 N.am   74  ALA74      -0.1977
    146  CA        13.3050  -13.2630   92.1650 C.3    74  ALA74       0.1597
    147  C         14.5850  -13.6040   91.4480 C.2    74  ALA74       0.2287
    148  O         14.8450  -13.0920   90.3550 O.2    74  ALA74      -0.2864
    149  CB        12.1500  -13.9950   91.5170 C.3    74  ALA74       0.0319
    150  N         10.4880  -17.2380   87.6320 N.3    79  LEU79      -0.1231
    151  CA         9.4790  -16.8130   88.5860 C.3    79  LEU79       0.1693
    152  C          9.1010  -15.3480   88.3930 C.2    79  LEU79       0.2591
    153  O          7.9640  -14.9570   88.5970 O.2    79  LEU79      -0.2718
    154  CB         9.9760  -17.0380   90.0020 C.3    79  LEU79       0.0284
    155  CG         8.9710  -16.5780   91.0380 C.3    79  LEU79       0.0019
    156  CD1        7.6510  -17.2290   90.7400 C.3    79  LEU79       0.0001
    157  CD2        9.4610  -16.9270   92.4130 C.3    79  LEU79       0.0001
    158  N         10.0740  -14.5340   88.0080 N.am   80  ALA80      -0.1980
    159  CA         9.8230  -13.1210   87.7830 C.3    80  ALA80       0.1597
    160  C          8.9260  -12.9850   86.5440 C.2    80  ALA80       0.2287
    161  O          7.9770  -12.1900   86.4920 O.2    80  ALA80      -0.2864
    162  CB        11.1720  -12.3860   87.5620 C.3    80  ALA80       0.0319
    163  N          5.1050  -12.4290   86.2000 N.3    83  TYR83      -0.1241
    164  CA         4.4520  -11.1620   86.5170 C.3    83  TYR83       0.1605
    165  C          4.7090  -10.1000   85.4460 C.2    83  TYR83       0.2264
    166  O          4.2490   -8.9580   85.5500 O.2    83  TYR83      -0.2867
    167  CB         4.9690  -10.6600   87.8460 C.3    83  TYR83       0.0534
    168  CG         4.8030  -11.6510   88.9520 C.ar   83  TYR83      -0.0201
    169  CD1        3.6520  -11.6730   89.7100 C.ar   83  TYR83      -0.0009
    170  CD2        5.8070  -12.5770   89.2450 C.ar   83  TYR83      -0.0009
    171  CE1        3.4930  -12.5820   90.7370 C.ar   83  TYR83       0.0417
    172  CE2        5.6560  -13.5040   90.2780 C.ar   83  TYR83       0.0417
    173  CZ         4.4940  -13.4900   91.0140 C.ar   83  TYR83       0.1957
    174  OH         4.3180  -14.3650   92.0440 O.3    83  TYR83      -0.2866
    175  N          8.3250  -18.9970   97.9020 N.3   148  GLU148     -0.1245
    176  CA         7.1150  -18.2010   97.6180 C.3   148  GLU148      0.1567
    177  C          5.9130  -18.8100   98.3370 C.2   148  GLU148      0.2260
    178  O          4.9380  -18.1420   98.6600 O.2   148  GLU148     -0.2867
    179  CB         6.8180  -18.1430   96.0910 C.3   148  GLU148      0.0388
    180  CG         6.5810  -19.5290   95.3810 C.3   148  GLU148      0.1160
    181  CD         5.9790  -19.4310   93.9600 C.2   148  GLU148      0.3649
    182  OE1        6.4990  -20.1370   93.0500 O.co2 148  GLU148     -0.2457
    183  OE2        4.9900  -18.6660   93.7730 O.co2 148  GLU148     -0.2457
    184  N         11.5150  -16.2210   96.3980 N.3   155  GLU155     -0.1245
    185  CA        11.3090  -14.8210   96.0660 C.3   155  GLU155      0.1567
    186  C         12.1520  -13.9650   97.0200 C.2   155  GLU155      0.2260
    187  O         12.4920  -14.3940   98.1190 O.2   155  GLU155     -0.2867
    188  CB         9.8400  -14.4670   96.2130 C.3   155  GLU155      0.0388
    189  CG         9.2680  -14.7310   97.5900 C.3   155  GLU155      0.1160
    190  CD         7.8050  -14.3230   97.6710 C.2   155  GLU155      0.3649
    191  OE1        7.0240  -14.7400   96.7800 O.co2 155  GLU155     -0.2457
    192  OE2        7.4300  -13.5890   98.6150 O.co2 155  GLU155     -0.2457
    193  N         11.7710   -1.3040  101.4090 N.3   160  TRP160     -0.1241
    194  CA        11.6930   -0.1180  100.5650 C.3   160  TRP160      0.1605
    195  C         12.9130    0.7880  100.5550 C.2   160  TRP160      0.2264
    196  O         13.3710    1.2300   99.4980 O.2   160  TRP160     -0.2867
    197  CB        10.4260    0.6640  100.8800 C.3   160  TRP160      0.0550
    198  CG         9.2410    0.0580  100.1520 C.ar  160  TRP160      0.0003
    199  CD1        8.1270   -0.4810  100.7120 C.ar  160  TRP160      0.0946
    200  CD2        9.0960   -0.1130   98.7310 C.ar  160  TRP160      0.0152
    201  NE1        7.2980   -0.9840   99.7410 N.ar  160  TRP160     -0.2442
    202  CE2        7.8630   -0.7660   98.5140 C.ar  160  TRP160      0.0810
    203  CE3        9.8850    0.2240   97.6240 C.ar  160  TRP160      0.0012
    204  CZ2        7.3920   -1.0860   97.2360 C.ar  160  TRP160      0.0191
    205  CZ3        9.4170   -0.0950   96.3490 C.ar  160  TRP160      0.0001
    206  CH2        8.1770   -0.7440   96.1690 C.ar  160  TRP160      0.0015
@<TRIPOS>BOND
     1    36    35    1
     2    36    37    2
     3    35    38    1
     4    35    34    1
     5    30    29    2
     6    38    39    1
     7    41    39   ar
     8    41    43   ar
     9    45    46    1
    10    29    34   am
    11    29    28    1
    12    39    40   ar
    13    50    51    1
    14    12    11    1
    15     9    11   ar
    16     9     7   ar
    17    47    46    1
    18    47    48    2
    19    43    44   ar
    20    46    49    1
    21    11    10   ar
    22    27    28    1
    23    27    25   am
    24    28    31    1
    25    40    42   ar
    26     7     6   ar
    27    51    54    1
    28    51    52    1
    29   165   166    2
    30   165   164    1
    31    33    31    1
    32    24    25    1
    33    24    23    1
    34    31    32    1
    35    44    42   ar
    36    54    55    1
    37   163   164    1
    38    52    56   am
    39    52    53    2
    40    25    26    2
    41    16    15    2
    42    10     8   ar
    43    64    65    1
    44   161   160    2
    45    56    57    1
    46   164   167    1
    47   160   159    1
    48     6     8   ar
    49     6     5    1
    50    58    57    1
    51    58    59    2
    52    23    15   am
    53    15    14    1
    54    57    60    1
    55    60    62    1
    56    60    61    1
    57     5     2    1
    58    65    66    1
    59   162   159    1
    60   150   151    1
    61   159   158    1
    62   167   168    1
    63   158   152   am
    64    13    14    1
    65    13     3   am
    66    61    63    1
    67   152   151    1
    68   152   153    2
    69     2     3    1
    70     2     1    1
    71    14    17    1
    72   151   154    1
    73    20    22   ar
    74    20    18   ar
    75    68    66   am
    76    68    69    1
    77    66    67    2
    78     3     4    2
    79   168   170   ar
    80   168   169   ar
    81    17    18    1
    82   170   172   ar
    83    22    21   ar
    84    18    19   ar
    85   169   171   ar
    86    69    70    1
    87   154   155    1
    88   172   173   ar
    89   148   147    2
    90    21    19   ar
    91   100    98    1
    92    71    70    2
    93    70    72   am
    94   171   173   ar
    95   156   155    1
    96   173   174    1
    97   155   157    1
    98    99    98    1
    99    72    73    1
   100    98    97    2
   101   147   146    1
   102   124   122   ar
   103   124   123   ar
   104   149   146    1
   105    78    76    1
   106    73    76    1
   107    73    74    1
   108   122   120   ar
   109   145   146    1
   110   145   139   am
   111   123   121   ar
   112   143   141    1
   113    97    96    1
   114    76    77    1
   115   141   138    1
   116   141   142    1
   117    84    85    1
   118    84    83    1
   119    85    86    1
   120   128   127    2
   121   138   139    1
   122   138   137    1
   123    88    87    1
   124   182   181   ar
   125   139   140    2
   126    74    79   am
   127    74    75    2
   128    79    80    1
   129    96    95    1
   130   120   119   ar
   131    86    87    2
   132    87    89    1
   133    83    80    1
   134   121   119   ar
   135   183   181   ar
   136   144   142    1
   137   127   137   am
   138   127   126    1
   139   181   180    1
   140    80    81    1
   141   119   118    1
   142    82    81    2
   143    95    94    1
   144    94    91    1
   145   129   126    1
   146   129   130    1
   147   126   125    1
   148   180   179    1
   149   125   116   am
   150   118   115    1
   151   185   188    1
   152   185   184    1
   153   185   186    1
   154   179   176    1
   155   206   205   ar
   156   206   204   ar
   157   116   115    1
   158   116   117    2
   159   188   189    1
   160   205   203   ar
   161   115   114    1
   162   130   131   ar
   163   130   132   ar
   164    91    90    1
   165    91    92    1
   166    93    92    2
   167   191   190   ar
   168   186   187    2
   169   131   133   ar
   170   132   134   ar
   171   204   202   ar
   172   189   190    1
   173   176   175    1
   174   176   177    1
   175   203   200   ar
   176   190   192   ar
   177   114   112   am
   178   113   112    2
   179   109   107   am
   180   133   135   ar
   181   177   178    2
   182   112   111    1
   183   134   135   ar
   184   202   200   ar
   185   202   201   ar
   186   200   198   ar
   187   135   136    1
   188   107   108    2
   189   107   106    1
   190   196   195    2
   191   201   199   ar
   192   111   110    1
   193   198   199   ar
   194   198   197    1
   195   106   105    1
   196   195   194    1
   197   194   197    1
   198   194   193    1
   199   101   102    1
   200   102   105    1
   201   102   103    1
   202   103   104    2
