@<TRIPOS>MOLECULE
tmp/1zmcE01.pdb
 146 141 0 0 0
SMALL
GASTEIGER

@<TRIPOS>ATOM
      1  N         60.7970  115.3320  -29.2420 N.3   153  PHE153     -0.1241
      2  CA        60.9910  113.9040  -29.1520 C.3   153  PHE153      0.1605
      3  C         59.9570  113.5250  -28.0890 C.2   153  PHE153      0.2264
      4  O         60.1560  113.7490  -26.8880 O.2   153  PHE153     -0.2867
      5  CB        62.4020  113.5920  -28.6830 C.3   153  PHE153      0.0534
      6  CG        62.7340  112.1270  -28.6940 C.ar  153  PHE153     -0.0203
      7  CD1       62.0630  111.2370  -27.8570 C.ar  153  PHE153     -0.0042
      8  CD2       63.7350  111.6340  -29.5240 C.ar  153  PHE153     -0.0042
      9  CE1       62.3840  109.8870  -27.8460 C.ar  153  PHE153     -0.0003
     10  CE2       64.0650  110.2790  -29.5200 C.ar  153  PHE153     -0.0003
     11  CZ        63.3840  109.4070  -28.6750 C.ar  153  PHE153     -0.0000
     12  N         70.9210  113.7880  -29.7330 N.3   182  ILE182     -0.1231
     13  CA        70.0230  112.8470  -30.3960 C.3   182  ILE182      0.1692
     14  C         69.8750  113.4530  -31.7780 C.2   182  ILE182      0.2593
     15  O         69.3430  114.5680  -31.9050 O.2   182  ILE182     -0.2718
     16  CB        68.6140  112.8140  -29.7680 C.3   182  ILE182      0.0266
     17  CG1       68.7210  112.7510  -28.2350 C.3   182  ILE182      0.0019
     18  CG2       67.8390  111.6190  -30.3160 C.3   182  ILE182      0.0020
     19  CD1       67.3880  112.6830  -27.4810 C.3   182  ILE182      0.0001
     20  N         70.3700  112.7280  -32.7890 N.am  183  GLY183     -0.1942
     21  CA        70.3160  113.1770  -34.1740 C.3   183  GLY183      0.2014
     22  C         71.6590  113.6500  -34.7190 C.2   183  GLY183      0.2639
     23  O         72.2610  114.5670  -34.1550 O.2   183  GLY183     -0.2714
     24  N         72.1180  113.0360  -35.8140 N.am  184  ALA184     -0.1963
     25  CA        73.4020  113.3800  -36.4260 C.3   184  ALA184      0.1728
     26  C         73.2240  114.1810  -37.7070 C.2   184  ALA184      0.2617
     27  O         74.0170  114.0580  -38.6280 O.2   184  ALA184     -0.2715
     28  CB        74.1910  112.1150  -36.7220 C.3   184  ALA184      0.0334
     29  N         72.1690  114.9840  -37.7510 N.am  185  GLY185     -0.1940
     30  CA        71.8850  115.8080  -38.9060 C.3   185  GLY185      0.2014
     31  C         72.8180  116.9880  -38.8710 C.2   185  GLY185      0.2639
     32  O         73.6300  117.1020  -37.9550 O.2   185  GLY185     -0.2714
     33  N         72.7110  117.8730  -39.8510 N.am  186  VAL186     -0.1963
     34  CA        73.6000  119.0360  -39.8990 C.3   186  VAL186      0.1727
     35  C         73.6040  119.8790  -38.6220 C.2   186  VAL186      0.2616
     36  O         74.6720  120.2430  -38.1080 O.2   186  VAL186     -0.2715
     37  CB        73.2530  119.9710  -41.1000 C.3   186  VAL186      0.0290
     38  CG1       74.1470  121.2290  -41.0620 C.3   186  VAL186      0.0023
     39  CG2       73.3930  119.1980  -42.4130 C.3   186  VAL186      0.0023
     40  N         72.4180  120.2150  -38.1240 N.am  187  ILE187     -0.1963
     41  CA        72.3220  121.0360  -36.9280 C.3   187  ILE187      0.1727
     42  C         72.9820  120.3550  -35.7410 C.2   187  ILE187      0.2616
     43  O         73.7170  120.9930  -34.9840 O.2   187  ILE187     -0.2715
     44  CB        70.8500  121.3930  -36.6300 C.3   187  ILE187      0.0290
     45  CG1       70.3490  122.3610  -37.7120 C.3   187  ILE187      0.0022
     46  CG2       70.7120  122.0130  -35.2270 C.3   187  ILE187      0.0023
     47  CD1       68.8530  122.5900  -37.7030 C.3   187  ILE187      0.0001
     48  N         72.7580  119.0580  -35.5870 N.am  188  GLY188     -0.1955
     49  CA        73.3770  118.3540  -34.4780 C.3   188  GLY188      0.1869
     50  C         74.9050  118.2530  -34.5100 C.2   188  GLY188      0.2309
     51  O         75.5630  118.3130  -33.4510 O.2   188  GLY188     -0.2863
     52  N         73.9240  110.2760  -31.1860 N.3   205  VAL205     -0.1231
     53  CA        73.2440  109.0140  -31.4380 C.3   205  VAL205      0.1692
     54  C         72.3250  109.2550  -32.6370 C.2   205  VAL205      0.2592
     55  O         71.5080  110.1810  -32.6430 O.2   205  VAL205     -0.2718
     56  CB        72.4900  108.5640  -30.1490 C.3   205  VAL205      0.0266
     57  CG1       71.7630  107.2200  -30.3480 C.3   205  VAL205      0.0020
     58  CG2       73.5030  108.4580  -29.0150 C.3   205  VAL205      0.0020
     59  N         72.5060  108.4290  -33.6680 N.am  206  GLU206     -0.1966
     60  CA        71.7730  108.5600  -34.9320 C.3   206  GLU206      0.1733
     61  C         71.1450  107.2630  -35.4160 C.2   206  GLU206      0.2616
     62  O         71.8050  106.2270  -35.5060 O.2   206  GLU206     -0.2715
     63  CB        72.7350  109.0990  -36.0070 C.3   206  GLU206      0.0429
     64  CG        72.2120  109.0880  -37.4450 C.3   206  GLU206      0.1163
     65  CD        71.0160  109.9730  -37.6130 C.2   206  GLU206      0.3649
     66  OE1       71.1070  111.1670  -37.2370 O.co2 206  GLU206     -0.2457
     67  OE2       69.9920  109.4810  -38.1150 O.co2 206  GLU206     -0.2457
     68  N         69.8680  107.3470  -35.7550 N.am  207  PHE207     -0.1960
     69  CA        69.1200  106.2090  -36.2390 C.3   207  PHE207      0.1771
     70  C         69.6250  105.6300  -37.5590 C.2   207  PHE207      0.2619
     71  O         69.7460  104.4160  -37.7090 O.2   207  PHE207     -0.2715
     72  CB        67.6810  106.6090  -36.4120 C.3   207  PHE207      0.0574
     73  CG        66.7900  105.4630  -36.7040 C.ar  207  PHE207     -0.0200
     74  CD1       66.5660  104.4870  -35.7380 C.ar  207  PHE207     -0.0042
     75  CD2       66.1380  105.3710  -37.9280 C.ar  207  PHE207     -0.0042
     76  CE1       65.6920  103.4340  -35.9890 C.ar  207  PHE207     -0.0003
     77  CE2       65.2580  104.3220  -38.1960 C.ar  207  PHE207     -0.0003
     78  CZ        65.0300  103.3520  -37.2260 C.ar  207  PHE207     -0.0000
     79  N         69.9000  106.5070  -38.5200 N.am  208  LEU208     -0.1977
     80  CA        70.3860  106.0930  -39.8260 C.3   208  LEU208      0.1596
     81  C         71.8410  105.6460  -39.7400 C.2   208  LEU208      0.2287
     82  O         72.4480  105.7300  -38.6670 O.2   208  LEU208     -0.2864
     83  CB        70.2290  107.2440  -40.8150 C.3   208  LEU208      0.0297
     84  CG        68.7380  107.5520  -40.9740 C.3   208  LEU208      0.0022
     85  CD1       68.5440  108.7770  -41.8300 C.3   208  LEU208      0.0001
     86  CD2       68.0270  106.3220  -41.5670 C.3   208  LEU208      0.0001
     87  N         72.6250  114.2930  -42.3400 N.3   213  GLY213     -0.1210
     88  CA        71.2780  114.4800  -42.8490 C.3   213  GLY213      0.1956
     89  C         71.0460  113.9220  -44.2310 C.2   213  GLY213      0.2611
     90  O         71.7960  113.0760  -44.7000 O.2   213  GLY213     -0.2717
     91  N         70.0060  114.4320  -44.8820 N.am  214  VAL214     -0.1979
     92  CA        69.6010  113.9990  -46.2060 C.3   214  VAL214      0.1595
     93  C         70.3040  114.6630  -47.3730 C.2   214  VAL214      0.2287
     94  O         70.6570  115.8570  -47.3340 O.2   214  VAL214     -0.2864
     95  CB        68.0770  114.2010  -46.3860 C.3   214  VAL214      0.0276
     96  CG1       67.3510  113.4140  -45.3150 C.3   214  VAL214      0.0022
     97  CG2       67.7070  115.6790  -46.2630 C.3   214  VAL214      0.0022
     98  N         71.4960  103.3980  -34.2330 N.3   239  THR239     -0.1203
     99  CA        70.9840  103.1820  -32.8980 C.3   239  THR239      0.1994
    100  C         69.8320  104.1470  -32.6400 C.2   239  THR239      0.2618
    101  O         69.8420  105.3260  -33.0290 O.2   239  THR239     -0.2717
    102  CB        72.1010  103.2990  -31.8240 C.3   239  THR239      0.1784
    103  OG1       73.0100  104.3220  -32.1990 O.3   239  THR239     -0.2211
    104  CG2       72.9090  101.9890  -31.7100 C.3   239  THR239      0.0376
    105  N         68.8190  103.6020  -31.9940 N.am  240  LYS240     -0.1965
    106  CA        67.5860  104.2970  -31.6950 C.3   240  LYS240      0.1728
    107  C         67.5540  104.7480  -30.2340 C.2   240  LYS240      0.2616
    108  O         67.8810  103.9770  -29.3260 O.2   240  LYS240     -0.2715
    109  CB        66.4650  103.3060  -32.0020 C.3   240  LYS240      0.0311
    110  CG        65.0470  103.7120  -31.7780 C.3   240  LYS240      0.0038
    111  CD        64.2040  102.4530  -31.9430 C.3   240  LYS240      0.0206
    112  CE        62.7330  102.7290  -31.7590 C.3   240  LYS240      0.1093
    113  NZ        62.4550  103.3510  -30.4260 N.3   240  LYS240     -0.1314
    114  N         67.1990  106.0050  -30.0050 N.am  241  VAL241     -0.1977
    115  CA        67.0870  106.4890  -28.6400 C.3   241  VAL241      0.1596
    116  C         65.6410  106.2240  -28.2360 C.2   241  VAL241      0.2287
    117  O         64.7210  106.7540  -28.8470 O.2   241  VAL241     -0.2864
    118  CB        67.3640  107.9990  -28.5290 C.3   241  VAL241      0.0276
    119  CG1       66.9190  108.5130  -27.1620 C.3   241  VAL241      0.0022
    120  CG2       68.8510  108.2640  -28.7300 C.3   241  VAL241      0.0022
    121  N         67.8200  116.9310  -31.1180 N.3   275  CYS275     -0.1221
    122  CA        68.0360  117.4990  -32.4390 C.3   275  CYS275      0.1808
    123  C         67.5110  116.6090  -33.5550 C.2   275  CYS275      0.2601
    124  O         68.2740  116.2210  -34.4290 O.2   275  CYS275     -0.2717
    125  CB        69.5380  117.6850  -32.6210 C.3   275  CYS275      0.0970
    126  SG        69.9320  119.2310  -33.3100 S.3   275  CYS275     -0.0800
    127  N         66.2190  116.3010  -33.5330 N.am  276  ILE276     -0.1965
    128  CA        65.6550  115.4250  -34.5410 C.3   276  ILE276      0.1727
    129  C         64.9180  116.1280  -35.6430 C.2   276  ILE276      0.2616
    130  O         64.0450  115.5480  -36.2770 O.2   276  ILE276     -0.2715
    131  CB        64.7200  114.3700  -33.9110 C.3   276  ILE276      0.0290
    132  CG1       63.5430  115.0470  -33.1830 C.3   276  ILE276      0.0022
    133  CG2       65.5340  113.4880  -32.9810 C.3   276  ILE276      0.0023
    134  CD1       62.5560  114.0850  -32.5520 C.3   276  ILE276      0.0001
    135  N         65.2690  117.3850  -35.8690 N.am  277  GLY277     -0.1955
    136  CA        64.6290  118.1350  -36.9320 C.3   277  GLY277      0.1869
    137  C         63.7280  119.2870  -36.5570 C.2   277  GLY277      0.2309
    138  O         63.4530  119.5540  -35.3880 O.2   277  GLY277     -0.2863
    139  N         64.8760  122.9730  -46.1330 N.3   324  MET324     -0.1245
    140  CA        64.6380  123.9770  -45.1050 C.3   324  MET324      0.1570
    141  C         65.8980  124.7480  -44.7330 C.2   324  MET324      0.2261
    142  O         66.4530  124.5710  -43.6480 O.2   324  MET324     -0.2867
    143  CB        64.0520  123.3020  -43.8750 C.3   324  MET324      0.0387
    144  CG        62.7280  122.6090  -44.1740 C.3   324  MET324      0.0595
    145  SD        62.0550  121.6320  -42.8000 S.3   324  MET324     -0.1393
    146  CE        61.3010  122.9420  -41.7280 C.3   324  MET324      0.0692
@<TRIPOS>BOND
     1    93    94    2
     2    93    92    1
     3    95    97    1
     4    95    92    1
     5    95    96    1
     6    92    91    1
     7   139   140    1
     8   140   141    1
     9   140   143    1
    10    91    89   am
    11   141   142    2
    12    90    89    2
    13    89    88    1
    14   144   143    1
    15   144   145    1
    16    88    87    1
    17   145   146    1
    18    39    37    1
    19    85    84    1
    20    86    84    1
    21    37    38    1
    22    37    34    1
    23    84    83    1
    24    83    80    1
    25    34    33    1
    26    34    35    1
    27    33    31   am
    28    80    81    1
    29    80    79    1
    30    81    82    2
    31    30    31    1
    32    30    29    1
    33    31    32    2
    34    27    26    2
    35    35    40   am
    36    35    36    2
    37    79    70   am
    38    77    75   ar
    39    77    78   ar
    40    40    41    1
    41    67    65   ar
    42    75    73   ar
    43    29    26   am
    44    45    47    1
    45    45    44    1
    46    71    70    2
    47    26    25    1
    48    65    64    1
    49    65    66   ar
    50    70    69    1
    51    64    63    1
    52    78    76   ar
    53   136   137    1
    54   136   135    1
    55    41    44    1
    56    41    42    1
    57    28    25    1
    58    73    72    1
    59    73    74   ar
    60    44    46    1
    61   137   138    2
    62    25    24    1
    63    72    69    1
    64   130   129    2
    65    69    68    1
    66    63    60    1
    67    76    74   ar
    68   135   129   am
    69    24    22   am
    70    68    61   am
    71    42    48   am
    72    42    43    2
    73   129   128    1
    74    48    49    1
    75    62    61    2
    76    61    60    1
    77    60    59    1
    78    22    21    1
    79    22    23    2
    80   128   131    1
    81   128   127    1
    82    50    49    1
    83    50    51    2
    84   124   123    2
    85    98    99    1
    86    21    20    1
    87   131   132    1
    88   131   133    1
    89    59    54   am
    90   123   127   am
    91   123   122    1
    92   126   125    1
    93   132   134    1
    94   101   100    2
    95    99   100    1
    96    99   102    1
    97    20    14   am
    98    55    54    2
    99   100   105   am
   100    54    53    1
   101   125   122    1
   102   122   121    1
   103   103   102    1
   104   109   110    1
   105   109   106    1
   106   105   106    1
   107   111   110    1
   108   111   112    1
   109    15    14    2
   110   102   104    1
   111    14    13    1
   112   112   113    1
   113   106   107    1
   114    53    52    1
   115    53    56    1
   116    13    16    1
   117    13    12    1
   118    57    56    1
   119    18    16    1
   120   107   114   am
   121   107   108    2
   122    56    58    1
   123   114   115    1
   124    16    17    1
   125     8    10   ar
   126     8     6   ar
   127    10    11   ar
   128     1     2    1
   129     2     5    1
   130     2     3    1
   131   117   116    2
   132   120   118    1
   133     6     5    1
   134     6     7   ar
   135    11     9   ar
   136   115   118    1
   137   115   116    1
   138   118   119    1
   139    17    19    1
   140     3     4    2
   141     7     9   ar
