@<TRIPOS>MOLECULE
tmp/1zmcA01.pdb
 193 187 0 0 0
SMALL
GASTEIGER

@<TRIPOS>ATOM
      1  N         65.0760  144.2160  -94.8000 N.3   151  THR151     -0.1218
      2  CA        64.6190  145.3480  -94.0120 C.3   151  THR151      0.1862
      3  C         63.7310  146.1840  -94.9300 C.2   151  THR151      0.2287
      4  O         64.1480  146.5700  -96.0270 O.2   151  THR151     -0.2866
      5  CB        65.8040  146.2200  -93.5460 C.3   151  THR151      0.1770
      6  OG1       66.5810  145.5020  -92.5840 O.3   151  THR151     -0.2211
      7  CG2       65.3060  147.5190  -92.9370 C.3   151  THR151      0.0375
      8  N         61.6700  149.4410  -96.3860 N.3   153  PHE153     -0.1241
      9  CA        61.8480  150.8810  -96.4980 C.3   153  PHE153      0.1605
     10  C         60.4450  151.4590  -96.3220 C.2   153  PHE153      0.2264
     11  O         59.5850  151.2750  -97.1860 O.2   153  PHE153     -0.2867
     12  CB        62.3890  151.2100  -97.8900 C.3   153  PHE153      0.0534
     13  CG        62.6900  152.6720  -98.1180 C.ar  153  PHE153     -0.0203
     14  CD1       61.7040  153.6460  -97.9780 C.ar  153  PHE153     -0.0042
     15  CD2       63.9590  153.0700  -98.5330 C.ar  153  PHE153     -0.0042
     16  CE1       61.9790  154.9870  -98.2500 C.ar  153  PHE153     -0.0003
     17  CE2       64.2420  154.4150  -98.8090 C.ar  153  PHE153     -0.0003
     18  CZ        63.2490  155.3710  -98.6670 C.ar  153  PHE153     -0.0000
     19  N         69.0100  151.2580 -104.0570 N.3   182  ILE182     -0.1231
     20  CA        69.0540  152.0560 -102.8390 C.3   182  ILE182      0.1692
     21  C         70.0590  151.3760 -101.9370 C.2   182  ILE182      0.2593
     22  O         69.8640  150.2200 -101.5610 O.2   182  ILE182     -0.2718
     23  CB        67.7110  152.0720 -102.0920 C.3   182  ILE182      0.0266
     24  CG1       66.5900  152.5200 -103.0220 C.3   182  ILE182      0.0019
     25  CG2       67.8000  153.0080 -100.8930 C.3   182  ILE182      0.0020
     26  CD1       65.2520  152.5230 -102.3670 C.3   182  ILE182      0.0001
     27  N         71.1290  152.0830 -101.5890 N.am  183  GLY183     -0.1942
     28  CA        72.1400  151.4990 -100.7310 C.3   183  GLY183      0.2014
     29  C         73.2620  150.8490 -101.5150 C.2   183  GLY183      0.2639
     30  O         73.0270  150.1340 -102.4910 O.2   183  GLY183     -0.2714
     31  N         74.4900  151.1020 -101.0790 N.am  184  ALA184     -0.1963
     32  CA        75.6640  150.5520 -101.7280 C.3   184  ALA184      0.1728
     33  C         76.3720  149.5960 -100.7810 C.2   184  ALA184      0.2617
     34  O         77.5870  149.6720 -100.5850 O.2   184  ALA184     -0.2715
     35  CB        76.5970  151.6690 -102.1590 C.3   184  ALA184      0.0334
     36  N         75.5850  148.7060 -100.1820 N.am  185  GLY185     -0.1940
     37  CA        76.1380  147.7060  -99.2950 C.3   185  GLY185      0.2014
     38  C         76.5980  146.6160 -100.2340 C.2   185  GLY185      0.2639
     39  O         76.3630  146.7360 -101.4430 O.2   185  GLY185     -0.2714
     40  N         77.2350  145.5630  -99.7050 N.am  186  VAL186     -0.1963
     41  CA        77.7480  144.4590 -100.5360 C.3   186  VAL186      0.1727
     42  C         76.6650  143.8350 -101.4160 C.2   186  VAL186      0.2616
     43  O         76.8950  143.5840 -102.6010 O.2   186  VAL186     -0.2715
     44  CB        78.4240  143.3370  -99.6710 C.3   186  VAL186      0.0290
     45  CG1       78.8950  142.1840 -100.5430 C.3   186  VAL186      0.0023
     46  CG2       79.6130  143.9050  -98.9370 C.3   186  VAL186      0.0023
     47  N         75.4860  143.5950 -100.8550 N.am  187  ILE187     -0.1977
     48  CA        74.4200  142.9950 -101.6470 C.3   187  ILE187      0.1596
     49  C         74.0220  143.8930 -102.8370 C.2   187  ILE187      0.2287
     50  O         73.9460  143.4370 -103.9910 O.2   187  ILE187     -0.2864
     51  CB        73.2100  142.6790 -100.7540 C.3   187  ILE187      0.0276
     52  CG1       73.6740  141.7260  -99.6360 C.3   187  ILE187      0.0022
     53  CG2       72.0850  142.0620 -101.5940 C.3   187  ILE187      0.0022
     54  CD1       72.6620  141.4380  -98.5590 C.3   187  ILE187      0.0001
     55  N         72.4340  154.6870 -105.1690 N.3   205  VAL205     -0.1231
     56  CA        72.3540  155.8960 -104.3720 C.3   205  VAL205      0.1692
     57  C         72.6000  155.5530 -102.9230 C.2   205  VAL205      0.2592
     58  O         71.7390  154.9700 -102.2670 O.2   205  VAL205     -0.2718
     59  CB        70.9710  156.5290 -104.5020 C.3   205  VAL205      0.0266
     60  CG1       70.8460  157.7300 -103.5720 C.3   205  VAL205      0.0020
     61  CG2       70.7540  156.9420 -105.9340 C.3   205  VAL205      0.0020
     62  N         73.7810  155.9250 -102.4360 N.am  206  GLU206     -0.1966
     63  CA        74.1840  155.6580 -101.0630 C.3   206  GLU206      0.1733
     64  C         74.1540  156.9120 -100.1960 C.2   206  GLU206      0.2616
     65  O         74.5330  157.9960 -100.6210 O.2   206  GLU206     -0.2715
     66  CB        75.5920  155.0400 -101.0460 C.3   206  GLU206      0.0429
     67  CG        76.2150  154.8690  -99.6460 C.3   206  GLU206      0.1163
     68  CD        75.3830  153.9900  -98.7180 C.2   206  GLU206      0.3649
     69  OE1       75.1320  152.8290  -99.0880 O.co2 206  GLU206     -0.2457
     70  OE2       74.9840  154.4590  -97.6230 O.co2 206  GLU206     -0.2457
     71  N         73.6930  156.7340  -98.9670 N.am  207  PHE207     -0.1960
     72  CA        73.5900  157.8010  -97.9800 C.3   207  PHE207      0.1771
     73  C         74.9490  158.0960  -97.3370 C.2   207  PHE207      0.2619
     74  O         75.1900  159.1880  -96.8370 O.2   207  PHE207     -0.2715
     75  CB        72.5970  157.3670  -96.9090 C.3   207  PHE207      0.0574
     76  CG        72.4720  158.3230  -95.7790 C.ar  207  PHE207     -0.0200
     77  CD1       71.8150  159.5350  -95.9540 C.ar  207  PHE207     -0.0042
     78  CD2       72.9970  158.0120  -94.5270 C.ar  207  PHE207     -0.0042
     79  CE1       71.6740  160.4330  -94.8950 C.ar  207  PHE207     -0.0003
     80  CE2       72.8660  158.8960  -93.4580 C.ar  207  PHE207     -0.0003
     81  CZ        72.1990  160.1140  -93.6430 C.ar  207  PHE207     -0.0000
     82  N         75.8250  157.0970  -97.3510 N.am  208  LEU208     -0.1977
     83  CA        77.1630  157.1970  -96.7790 C.3   208  LEU208      0.1596
     84  C         78.1290  157.6130  -97.8690 C.2   208  LEU208      0.2287
     85  O         77.7590  157.6240  -99.0410 O.2   208  LEU208     -0.2864
     86  CB        77.5680  155.8480  -96.2000 C.3   208  LEU208      0.0297
     87  CG        76.7280  155.4330  -94.9890 C.3   208  LEU208      0.0022
     88  CD1       76.9240  153.9510  -94.7190 C.3   208  LEU208      0.0001
     89  CD2       77.1060  156.2890  -93.7680 C.3   208  LEU208      0.0001
     90  N         80.3140  149.6580 -100.3290 N.3   212  GLY212     -0.1210
     91  CA        80.7670  148.4010  -99.7620 C.3   212  GLY212      0.1956
     92  C         80.2770  148.1100  -98.3640 C.2   212  GLY212      0.2612
     93  O         80.5530  147.0410  -97.8110 O.2   212  GLY212     -0.2717
     94  N         79.5720  149.0630  -97.7710 N.am  213  GLY213     -0.1942
     95  CA        79.0420  148.8550  -96.4360 C.3   213  GLY213      0.2014
     96  C         79.9690  149.0430  -95.2410 C.2   213  GLY213      0.2638
     97  O         81.0150  149.6910  -95.3350 O.2   213  GLY213     -0.2714
     98  N         79.5670  148.4580  -94.1110 N.am  214  VAL214     -0.1977
     99  CA        80.2990  148.5400  -92.8400 C.3   214  VAL214      0.1596
    100  C         81.6170  147.7550  -92.8120 C.2   214  VAL214      0.2287
    101  O         81.7070  146.6700  -93.3920 O.2   214  VAL214     -0.2864
    102  CB        79.4060  148.0240  -91.6420 C.3   214  VAL214      0.0276
    103  CG1       80.1960  148.0650  -90.3220 C.3   214  VAL214      0.0022
    104  CG2       78.1460  148.8660  -91.5110 C.3   214  VAL214      0.0022
    105  N         73.9340  160.6750 -100.6390 N.3   239  THR239     -0.1203
    106  CA        72.6040  161.0140 -101.1310 C.3   239  THR239      0.1994
    107  C         71.5880  160.0720 -100.5050 C.2   239  THR239      0.2618
    108  O         71.7890  158.8570 -100.4870 O.2   239  THR239     -0.2717
    109  CB        72.5350  160.8560 -102.6760 C.3   239  THR239      0.1784
    110  OG1       73.5100  161.7070 -103.2920 O.3   239  THR239     -0.2211
    111  CG2       71.1410  161.2000 -103.2000 C.3   239  THR239      0.0376
    112  N         70.5010  160.6450  -99.9990 N.am  240  LYS240     -0.1965
    113  CA        69.4250  159.8880  -99.3630 C.3   240  LYS240      0.1728
    114  C         68.2370  159.6940 -100.3040 C.2   240  LYS240      0.2616
    115  O         67.8370  160.6270 -100.9870 O.2   240  LYS240     -0.2715
    116  CB        68.9300  160.6240  -98.1070 C.3   240  LYS240      0.0311
    117  CG        67.8040  159.8990  -97.3810 C.3   240  LYS240      0.0038
    118  CD        66.7730  160.8390  -96.7420 C.3   240  LYS240      0.0206
    119  CE        67.3440  161.7070  -95.6130 C.3   240  LYS240      0.1093
    120  NZ        67.9340  163.0100  -96.0800 N.3   240  LYS240     -0.1314
    121  N         67.6880  158.4830 -100.3450 N.am  241  VAL241     -0.1977
    122  CA        66.5090  158.1880 -101.1600 C.3   241  VAL241      0.1596
    123  C         65.3390  158.4370 -100.2120 C.2   241  VAL241      0.2287
    124  O         65.1480  157.6940  -99.2590 O.2   241  VAL241     -0.2864
    125  CB        66.4530  156.7010 -101.6270 C.3   241  VAL241      0.0276
    126  CG1       65.1200  156.4200 -102.2910 C.3   241  VAL241      0.0022
    127  CG2       67.5760  156.4020 -102.6100 C.3   241  VAL241      0.0022
    128  N         67.5450  147.8850 -101.2090 N.3   275  CYS275     -0.1221
    129  CA        68.5680  147.0810 -100.5810 C.3   275  CYS275      0.1808
    130  C         69.1980  147.8290  -99.4380 C.2   275  CYS275      0.2601
    131  O         70.3820  148.1610  -99.4700 O.2   275  CYS275     -0.2717
    132  CB        69.6410  146.7480 -101.6100 C.3   275  CYS275      0.0970
    133  SG        70.1720  145.0460 -101.5620 S.3   275  CYS275     -0.0800
    134  N         68.4110  148.0760  -98.4130 N.am  276  ILE276     -0.1965
    135  CA        68.9120  148.8180  -97.2830 C.3   276  ILE276      0.1727
    136  C         69.1920  147.9580  -96.0680 C.2   276  ILE276      0.2617
    137  O         69.2000  148.4510  -94.9450 O.2   276  ILE276     -0.2715
    138  CB        67.9240  149.9360  -96.9170 C.3   276  ILE276      0.0290
    139  CG1       66.5390  149.3350  -96.6470 C.3   276  ILE276      0.0022
    140  CG2       67.8800  150.9500  -98.0530 C.3   276  ILE276      0.0023
    141  CD1       65.5750  150.2320  -95.8690 C.3   276  ILE276      0.0001
    142  N         69.4140  146.6670  -96.2930 N.am  277  GLY277     -0.1940
    143  CA        69.7210  145.7810  -95.1870 C.3   277  GLY277      0.2014
    144  C         68.7540  144.6470  -94.9210 C.2   277  GLY277      0.2639
    145  O         67.7770  144.4500  -95.6630 O.2   277  GLY277     -0.2714
    146  N         69.0630  143.8860  -93.8690 N.am  278  ARG278     -0.1963
    147  CA        68.2560  142.7670  -93.4220 C.3   278  ARG278      0.1729
    148  C         68.2100  142.9240  -91.9090 C.2   278  ARG278      0.2616
    149  O         69.0490  143.6100  -91.3170 O.2   278  ARG278     -0.2715
    150  CB        68.9030  141.4330  -93.8030 C.3   278  ARG278      0.0348
    151  CG        69.0650  141.2320  -95.3030 C.3   278  ARG278      0.0492
    152  CD        69.6690  139.8820  -95.6410 C.3   278  ARG278      0.2205
    153  NE        68.7770  138.7740  -95.2980 N.pl3 278  ARG278     -0.0865
    154  CZ        67.6480  138.4980  -95.9410 C.cat 278  ARG278      0.5346
    155  NH1       67.2680  139.2490  -96.9670 N.pl3 278  ARG278      0.1354
    156  NH2       66.9020  137.4660  -95.5680 N.pl3 278  ARG278      0.1354
    157  N         67.2220  142.3120  -91.2760 N.am  279  ARG279     -0.1964
    158  CA        67.1060  142.4270  -89.8380 C.3   279  ARG279      0.1714
    159  C         66.7480  141.0570  -89.2630 C.2   279  ARG279      0.2458
    160  O         66.1380  140.2280  -89.9350 O.2   279  ARG279     -0.2730
    161  CB        66.0590  143.4990  -89.4980 C.3   279  ARG279      0.0347
    162  CG        64.6510  143.1770  -89.9750 C.3   279  ARG279      0.0492
    163  CD        63.7110  144.3820  -89.8930 C.3   279  ARG279      0.2205
    164  NE        62.3170  143.9900  -90.1000 N.pl3 279  ARG279     -0.0865
    165  CZ        61.2870  144.8310  -90.1020 C.cat 279  ARG279      0.5346
    166  NH1       61.4900  146.1330  -89.9130 N.pl3 279  ARG279      0.1354
    167  NH2       60.0500  144.3650  -90.2660 N.pl3 279  ARG279      0.1354
    168  N         67.1460  140.7930  -88.0120 N.am  280  PRO280     -0.2727
    169  CA        66.8430  139.4940  -87.4020 C.3   280  PRO280      0.1402
    170  C         65.3590  139.1380  -87.3820 C.2   280  PRO280      0.2269
    171  O         64.5270  139.9700  -87.0500 O.2   280  PRO280     -0.2865
    172  CB        67.4590  139.6070  -86.0050 C.3   280  PRO280      0.0296
    173  CG        67.4690  141.0620  -85.7350 C.3   280  PRO280      0.0237
    174  CD        67.8280  141.6830  -87.0590 C.3   280  PRO280      0.0939
    175  N         68.2170  146.2410  -81.8740 N.3   297  ARG297     -0.1245
    176  CA        68.1890  145.8690  -83.2820 C.3   297  ARG297      0.1563
    177  C         67.2990  144.6470  -83.4880 C.2   297  ARG297      0.2260
    178  O         67.1470  144.1680  -84.5920 O.2   297  ARG297     -0.2867
    179  CB        69.6220  145.6240  -83.7710 C.3   297  ARG297      0.0307
    180  CG        70.5010  146.8700  -83.5960 C.3   297  ARG297      0.0489
    181  CD        71.9520  146.6490  -83.9580 C.3   297  ARG297      0.2205
    182  NE        72.0550  145.9640  -85.2340 N.pl3 297  ARG297     -0.0865
    183  CZ        73.1960  145.6120  -85.8150 C.cat 297  ARG297      0.5346
    184  NH1       74.3630  145.8850  -85.2380 N.pl3 297  ARG297      0.1354
    185  NH2       73.1630  144.9630  -86.9740 N.pl3 297  ARG297      0.1354
    186  N         76.4280  139.5450  -90.1390 N.3   324  MET324     -0.1245
    187  CA        75.3770  138.7080  -90.6800 C.3   324  MET324      0.1570
    188  C         75.8410  138.0530  -91.9710 C.2   324  MET324      0.2261
    189  O         75.5290  138.5000  -93.0880 O.2   324  MET324     -0.2867
    190  CB        74.1140  139.5380  -90.8910 C.3   324  MET324      0.0387
    191  CG        73.5150  140.0600  -89.5830 C.3   324  MET324      0.0595
    192  SD        72.2500  141.4080  -89.7570 S.3   324  MET324     -0.1393
    193  CE        70.7490  140.4640  -90.3040 C.3   324  MET324      0.0692
@<TRIPOS>BOND
     1    61    59    1
     2    55    56    1
     3    59    56    1
     4    59    60    1
     5    56    57    1
     6    19    20    1
     7    50    49    2
     8   110   109    1
     9   111   109    1
    10    24    26    1
    11    24    23    1
    12    57    62   am
    13    57    58    2
    14    20    23    1
    15    20    21    1
    16    49    48    1
    17   109   106    1
    18   127   125    1
    19    43    42    2
    20    30    29    2
    21    62    63    1
    22   126   125    1
    23    35    32    1
    24    23    25    1
    25    21    27   am
    26    21    22    2
    27    32    31    1
    28    32    33    1
    29    48    47    1
    30    48    51    1
    31   125   122    1
    32   132   133    1
    33   132   129    1
    34    53    51    1
    35    27    28    1
    36    29    31   am
    37    29    28    1
    38    39    38    2
    39    42    47   am
    40    42    41    1
    41   128   129    1
    42   122   121    1
    43   122   123    1
    44   106   105    1
    45   106   107    1
    46    63    66    1
    47    63    64    1
    48    66    67    1
    49   115   114    2
    50    33    34    2
    51    33    36   am
    52    51    52    1
    53    65    64    2
    54   129   130    1
    55    45    44    1
    56    41    40    1
    57    41    44    1
    58   107   108    2
    59   107   112   am
    60   121   114   am
    61    90    91    1
    62   114   113    1
    63    38    40   am
    64    38    37    1
    65   123   124    2
    66    64    71   am
    67    36    37    1
    68   112   113    1
    69    91    92    1
    70    44    46    1
    71    67    68    1
    72    52    54    1
    73   131   130    2
    74   130   134   am
    75   113   116    1
    76    69    68   ar
    77    85    84    2
    78    71    72    1
    79    17    18   ar
    80    17    15   ar
    81    68    70   ar
    82    18    16   ar
    83    15    13   ar
    84   134   135    1
    85    92    93    2
    86    92    94   am
    87    16    14   ar
    88    13    14   ar
    89    13    12    1
    90   116   117    1
    91   140   138    1
    92    72    73    1
    93    72    75    1
    94    12     9    1
    95    84    83    1
    96    94    95    1
    97   117   118    1
    98    82    73   am
    99    82    83    1
   100    73    74    2
   101   135   138    1
   102   135   136    1
   103    11    10    2
   104   155   154    1
   105   138   139    1
   106    75    76    1
   107    83    86    1
   108   118   119    1
   109   139   141    1
   110     9     8    1
   111     9    10    1
   112    95    96    1
   113   142   136   am
   114   142   143    1
   115    86    87    1
   116   120   119    1
   117   136   137    2
   118     4     3    2
   119    77    76   ar
   120    77    79   ar
   121   154   156    1
   122   154   153    2
   123    76    78   ar
   124   145   144    2
   125   152   151    1
   126   152   153    1
   127    97    96    2
   128   151   150    1
   129    96    98   am
   130   143   144    1
   131    87    88    1
   132    87    89    1
   133     3     2    1
   134   144   146   am
   135    79    81   ar
   136     1     2    1
   137    78    80   ar
   138    98    99    1
   139     2     5    1
   140   146   147    1
   141   150   147    1
   142    81    80   ar
   143     5     7    1
   144     5     6    1
   145   147   148    1
   146   101   100    2
   147   189   188    2
   148    99   100    1
   149    99   102    1
   150   188   187    1
   151   148   149    2
   152   148   157   am
   153   102   104    1
   154   102   103    1
   155   157   158    1
   156   190   187    1
   157   190   191    1
   158   187   186    1
   159   193   192    1
   160   167   165    1
   161   165   164    2
   162   165   166    1
   163   164   163    1
   164   162   163    1
   165   162   161    1
   166   160   159    2
   167   158   161    1
   168   158   159    1
   169   192   191    1
   170   159   168   am
   171   168   169    1
   172   168   174    1
   173   169   170    1
   174   169   172    1
   175   170   171    2
   176   174   173    1
   177   185   183    1
   178   172   173    1
   179   183   184    1
   180   183   182    2
   181   182   181    1
   182   178   177    2
   183   181   180    1
   184   179   180    1
   185   179   176    1
   186   177   176    1
   187   176   175    1
