@<TRIPOS>MOLECULE
tmp/1zmjA00.pdb
 129 130 0 0 0
SMALL
GASTEIGER

@<TRIPOS>ATOM
      1  N         10.5170   78.8100   90.6690 N.3    44  HIS44      -0.1241
      2  CA         9.1530   78.6440   90.1790 C.3    44  HIS44       0.1621
      3  C          8.5230   77.3330   90.6600 C.2    44  HIS44       0.2264
      4  O          7.3820   77.0130   90.3600 O.2    44  HIS44      -0.2867
      5  CB         9.1890   78.6670   88.6500 C.3    44  HIS44       0.0745
      6  CG         9.5720   77.3050   88.1330 C.ar   44  HIS44       0.0817
      7  ND1       10.7860   77.0290   87.5980 N.ar   44  HIS44      -0.2268
      8  CD2        8.7650   76.1670   88.0070 C.ar   44  HIS44       0.1154
      9  CE1       10.7060   75.7630   87.1440 C.ar   44  HIS44       0.1986
     10  NE2        9.5070   75.2230   87.3750 N.ar   44  HIS44      -0.2212
     11  N         15.6570   65.9720   76.2570 N.3   182  ASP182     -0.1225
     12  CA        15.4390   67.2340   76.9490 C.3   182  ASP182      0.1805
     13  C         14.7280   67.0110   78.2750 C.2   182  ASP182      0.2598
     14  O         14.2310   65.9200   78.5510 O.2   182  ASP182     -0.2718
     15  CB        14.5940   68.1280   76.0220 C.3   182  ASP182      0.1424
     16  CG        14.3440   69.5200   76.5760 C.2   182  ASP182      0.3668
     17  OD1       15.1530   70.0240   77.3780 O.co2 182  ASP182     -0.2456
     18  OD2       13.3280   70.1300   76.1700 O.co2 182  ASP182     -0.2456
     19  N         14.6970   68.0460   79.1050 N.am  183  ALA183     -0.1966
     20  CA        13.9980   67.9630   80.3790 C.3   183  ALA183      0.1728
     21  C         12.5170   68.1900   80.0710 C.2   183  ALA183      0.2616
     22  O         12.1770   68.7120   79.0060 O.2   183  ALA183     -0.2715
     23  CB        14.5080   69.0490   81.3250 C.3   183  ALA183      0.0334
     24  N         11.6360   67.7900   80.9830 N.am  184  CYS184     -0.1954
     25  CA        10.2020   68.0040   80.7830 C.3   184  CYS184      0.1843
     26  C          9.5320   68.1660   82.1430 C.2   184  CYS184      0.2625
     27  O         10.1740   67.9710   83.1720 O.2   184  CYS184     -0.2714
     28  CB         9.5820   66.8420   79.9960 C.3   184  CYS184      0.0997
     29  SG         8.0460   67.2810   79.0970 S.3   184  CYS184     -0.0797
     30  N          8.2510   68.5320   82.1490 N.am  185  LYS185     -0.1963
     31  CA         7.5180   68.7590   83.3960 C.3   185  LYS185      0.1728
     32  C          7.8150   67.7450   84.4880 C.2   185  LYS185      0.2617
     33  O          7.6580   66.5460   84.2940 O.2   185  LYS185     -0.2715
     34  CB         6.0100   68.8010   83.1310 C.3   185  LYS185      0.0311
     35  CG         5.1900   69.2200   84.3460 C.3   185  LYS185      0.0038
     36  CD         3.7650   69.6070   83.9680 C.3   185  LYS185      0.0206
     37  CE         2.9600   69.9910   85.2010 C.3   185  LYS185      0.1093
     38  NZ         1.5750   70.4420   84.8700 N.3   185  LYS185     -0.1314
     39  N          8.2330   68.2420   85.6470 N.am  186  GLY186     -0.1940
     40  CA         8.5570   67.3660   86.7560 C.3   186  GLY186      0.2014
     41  C         10.0550   67.3260   86.9850 C.2   186  GLY186      0.2639
     42  O         10.5180   66.9570   88.0680 O.2   186  GLY186     -0.2714
     43  N         10.8190   67.6980   85.9610 N.am  187  ASP187     -0.1957
     44  CA        12.2730   67.7210   86.0650 C.3   187  ASP187      0.1840
     45  C         12.7390   69.0570   86.6220 C.2   187  ASP187      0.2622
     46  O         13.8950   69.2030   87.0150 O.2   187  ASP187     -0.2715
     47  CB        12.9300   67.5070   84.6980 C.3   187  ASP187      0.1450
     48  CG        12.7190   66.1040   84.1610 C.2   187  ASP187      0.3671
     49  OD1       12.8740   65.1370   84.9440 O.co2 187  ASP187     -0.2456
     50  OD2       12.4090   65.9750   82.9560 O.co2 187  ASP187     -0.2456
     51  N         11.8420   70.0390   86.6520 N.am  188  SER188     -0.1950
     52  CA        12.2000   71.3680   87.1680 C.3   188  SER188      0.1924
     53  C         12.9400   71.3120   88.4830 C.2   188  SER188      0.2314
     54  O         12.6080   70.5220   89.3740 O.2   188  SER188     -0.2863
     55  CB        10.9690   72.2320   87.4270 C.3   188  SER188      0.2116
     56  OG        10.2730   72.4840   86.2320 O.3   188  SER188     -0.2180
     57  N         17.3730   72.9760   85.9670 N.3   206  THR206     -0.1203
     58  CA        16.2920   72.8640   84.9900 C.3   206  THR206      0.1994
     59  C         15.2580   73.9630   85.2430 C.2   206  THR206      0.2619
     60  O         14.6410   74.0180   86.3130 O.2   206  THR206     -0.2717
     61  CB        15.6320   71.4750   85.0630 C.3   206  THR206      0.1784
     62  OG1       16.6260   70.4730   84.8140 O.3   206  THR206     -0.2211
     63  CG2       14.5200   71.3490   84.0150 C.3   206  THR206      0.0376
     64  N         15.0590   74.8300   84.2520 N.am  207  SER207     -0.1937
     65  CA        14.1480   75.9620   84.4180 C.3   207  SER207      0.2055
     66  C         12.9290   76.0080   83.4920 C.2   207  SER207      0.2643
     67  O         11.7840   76.0310   83.9620 O.2   207  SER207     -0.2714
     68  CB        14.9500   77.2670   84.2820 C.3   207  SER207      0.2130
     69  OG        14.1620   78.4100   84.5920 O.3   207  SER207     -0.2179
     70  N         13.1630   76.0470   82.1840 N.am  208  TRP208     -0.1959
     71  CA        12.0480   76.0900   81.2440 C.3   208  TRP208      0.1771
     72  C         12.4400   75.7720   79.8120 C.2   208  TRP208      0.2620
     73  O         13.6050   75.4960   79.5100 O.2   208  TRP208     -0.2715
     74  CB        11.3670   77.4640   81.2760 C.3   208  TRP208      0.0590
     75  CG        12.2510   78.5890   80.8540 C.ar  208  TRP208      0.0006
     76  CD1       13.2010   79.2130   81.6080 C.ar  208  TRP208      0.0946
     77  CD2       12.2720   79.2310   79.5700 C.ar  208  TRP208      0.0152
     78  NE1       13.8100   80.2070   80.8780 N.ar  208  TRP208     -0.2442
     79  CE2       13.2570   80.2380   79.6240 C.ar  208  TRP208      0.0810
     80  CE3       11.5530   79.0540   78.3830 C.ar  208  TRP208      0.0012
     81  CZ2       13.5410   81.0670   78.5370 C.ar  208  TRP208      0.0191
     82  CZ3       11.8370   79.8790   77.3030 C.ar  208  TRP208      0.0001
     83  CH2       12.8210   80.8730   77.3890 C.ar  208  TRP208      0.0015
     84  N         11.4400   75.8190   78.9380 N.am  209  GLY209     -0.1940
     85  CA        11.6460   75.5480   77.5300 C.3   209  GLY209      0.2014
     86  C         10.3090   75.5480   76.8140 C.2   209  GLY209      0.2639
     87  O          9.2600   75.5120   77.4600 O.2   209  GLY209     -0.2714
     88  N         10.3290   75.6100   75.4870 N.am  210  GLU210     -0.1963
     89  CA         9.0780   75.5870   74.7320 C.3   210  GLU210      0.1733
     90  C          8.7530   74.1360   74.4210 C.2   210  GLU210      0.2617
     91  O          9.3550   73.5340   73.5310 O.2   210  GLU210     -0.2715
     92  CB         9.2030   76.3670   73.4200 C.3   210  GLU210      0.0429
     93  CG         7.8940   76.4260   72.6420 C.3   210  GLU210      0.1163
     94  CD         6.7880   77.1160   73.4230 C.2   210  GLU210      0.3649
     95  OE1        6.9360   78.3270   73.6870 O.co2 210  GLU210     -0.2457
     96  OE2        5.7820   76.4510   73.7770 O.co2 210  GLU210     -0.2457
     97  N          7.7900   73.5800   75.1450 N.am  211  GLY211     -0.1940
     98  CA         7.4350   72.1890   74.9410 C.3   211  GLY211      0.2014
     99  C          8.5550   71.3590   75.5380 C.2   211  GLY211      0.2639
    100  O          9.2540   71.8220   76.4450 O.2   211  GLY211     -0.2714
    101  N          8.7350   70.1440   75.0370 N.am  212  CYS212     -0.1967
    102  CA         9.7940   69.2720   75.5270 C.3   212  CYS212      0.1712
    103  C         10.4470   68.5390   74.3680 C.2   212  CYS212      0.2296
    104  O          9.7600   67.8820   73.5930 O.2   212  CYS212     -0.2864
    105  CB         9.2270   68.2380   76.5000 C.3   212  CYS212      0.0983
    106  SG         8.5440   68.9390   78.0300 S.3   212  CYS212     -0.0798
    107  N         16.6750   73.2820   75.9050 N.3   219  GLY219     -0.1210
    108  CA        16.1700   73.4750   77.2490 C.3   219  GLY219      0.1956
    109  C         16.8970   74.6770   77.8280 C.2   219  GLY219      0.2612
    110  O         18.0570   74.9270   77.4930 O.2   219  GLY219     -0.2717
    111  N         16.2230   75.4280   78.6880 N.am  220  VAL220     -0.1965
    112  CA        16.8230   76.6010   79.3020 C.3   220  VAL220      0.1727
    113  C         17.0420   76.3410   80.7860 C.2   220  VAL220      0.2616
    114  O         16.1240   75.9150   81.4930 O.2   220  VAL220     -0.2715
    115  CB        15.9260   77.8430   79.1280 C.3   220  VAL220      0.0290
    116  CG1       16.6320   79.0710   79.6850 C.3   220  VAL220      0.0023
    117  CG2       15.5940   78.0390   77.6510 C.3   220  VAL220      0.0023
    118  N         18.2610   76.6120   81.2470 N.am  221  TYR221     -0.1974
    119  CA        18.6380   76.3790   82.6350 C.3   221  TYR221      0.1639
    120  C         19.2150   77.6110   83.3210 C.2   221  TYR221      0.2290
    121  O         19.7440   78.5110   82.6730 O.2   221  TYR221     -0.2864
    122  CB        19.6870   75.2600   82.7110 C.3   221  TYR221      0.0560
    123  CG        19.2740   73.9740   82.0310 C.ar  221  TYR221     -0.0198
    124  CD1       19.2490   73.8720   80.6460 C.ar  221  TYR221     -0.0009
    125  CD2       18.8830   72.8700   82.7760 C.ar  221  TYR221     -0.0009
    126  CE1       18.8420   72.7050   80.0230 C.ar  221  TYR221      0.0417
    127  CE2       18.4760   71.7020   82.1620 C.ar  221  TYR221      0.0417
    128  CZ        18.4560   71.6240   80.7870 C.ar  221  TYR221      0.1957
    129  OH        18.0430   70.4600   80.1720 O.3   221  TYR221     -0.2866
@<TRIPOS>BOND
     1    93    92    1
     2    93    94    1
     3    92    89    1
     4    94    95   ar
     5    94    96   ar
     6    91    90    2
     7   104   103    2
     8   103   102    1
     9    90    89    1
    10    90    97   am
    11    89    88    1
    12    98    97    1
    13    98    99    1
    14   101   102    1
    15   101    99   am
    16    88    86   am
    17   102   105    1
    18    99   100    2
    19   107   108    1
    20    15    16    1
    21    15    12    1
    22    18    16   ar
    23    11    12    1
    24   105   106    1
    25    16    17   ar
    26    86    87    2
    27    86    85    1
    28    12    13    1
    29   108   109    1
    30    82    83   ar
    31    82    80   ar
    32    83    81   ar
    33   110   109    2
    34    85    84    1
    35   117   115    1
    36   109   111   am
    37   106    29    1
    38    13    14    2
    39    13    19   am
    40    80    77   ar
    41    81    79   ar
    42   111   112    1
    43    84    72   am
    44    22    21    2
    45    29    28    1
    46    19    20    1
    47   115   112    1
    48   115   116    1
    49   112   113    1
    50    73    72    2
    51    77    79   ar
    52    77    75   ar
    53    79    78   ar
    54    72    71    1
    55    28    25    1
    56   126   124   ar
    57   126   128   ar
    58    21    20    1
    59    21    24   am
    60   129   128    1
    61    20    23    1
    62   124   123   ar
    63    25    24    1
    64    25    26    1
    65   113   118   am
    66   113   114    2
    67   128   127   ar
    68    75    74    1
    69    75    76   ar
    70    78    76   ar
    71    71    74    1
    72    71    70    1
    73   118   119    1
    74   123   122    1
    75   123   125   ar
    76    26    30   am
    77    26    27    2
    78    30    31    1
    79   127   125   ar
    80    70    66   am
    81   119   122    1
    82   119   120    1
    83   121   120    2
    84    50    48   ar
    85    34    31    1
    86    34    35    1
    87    31    32    1
    88    66    67    2
    89    66    65    1
    90    36    35    1
    91    36    37    1
    92    63    61    1
    93    48    47    1
    94    48    49   ar
    95    64    65    1
    96    64    59   am
    97    68    65    1
    98    68    69    1
    99    33    32    2
   100    32    39   am
   101    47    44    1
   102    62    61    1
   103    38    37    1
   104    58    61    1
   105    58    59    1
   106    58    57    1
   107    59    60    2
   108    39    40    1
   109    43    44    1
   110    43    41   am
   111    44    45    1
   112    56    55    1
   113    45    51   am
   114    45    46    2
   115    51    52    1
   116    40    41    1
   117    41    42    2
   118     9    10   ar
   119     9     7   ar
   120    52    55    1
   121    52    53    1
   122    10     8   ar
   123     7     6   ar
   124     8     6   ar
   125     6     5    1
   126    53    54    2
   127     5     2    1
   128     2     3    1
   129     2     1    1
   130     4     3    2
