@<TRIPOS>MOLECULE
tmp/1zmlA00.pdb
 125 123 0 0 0
SMALL
GASTEIGER

@<TRIPOS>ATOM
      1  N         10.6620   79.0410   91.0870 N.3    44  HIS44      -0.1241
      2  CA         9.2960   78.9250   90.5950 C.3    44  HIS44       0.1621
      3  C          8.6760   77.5870   91.0450 C.2    44  HIS44       0.2264
      4  O          7.5240   77.2720   90.7150 O.2    44  HIS44      -0.2867
      5  CB         9.3130   78.9740   89.0960 C.3    44  HIS44       0.0745
      6  CG         9.6040   77.6590   88.4840 C.ar   44  HIS44       0.0817
      7  ND1       10.8480   77.2950   88.0220 N.ar   44  HIS44      -0.2268
      8  CD2        8.8170   76.5810   88.3350 C.ar   44  HIS44       0.1154
      9  CE1       10.8240   76.0470   87.5960 C.ar   44  HIS44       0.1986
     10  NE2        9.5990   75.5960   87.7760 N.ar   44  HIS44      -0.2212
     11  N         15.6260   66.1720   76.5440 N.3   182  ASP182     -0.1225
     12  CA        15.4280   67.4250   77.2580 C.3   182  ASP182      0.1805
     13  C         14.6650   67.1970   78.5590 C.2   182  ASP182      0.2598
     14  O         14.1020   66.1290   78.7840 O.2   182  ASP182     -0.2718
     15  CB        14.6560   68.3740   76.3320 C.3   182  ASP182      0.1424
     16  CG        14.3160   69.7070   76.9730 C.2   182  ASP182      0.3668
     17  OD1       15.0690   70.1970   77.8390 O.co2 182  ASP182     -0.2456
     18  OD2       13.2830   70.2850   76.5710 O.co2 182  ASP182     -0.2456
     19  N         14.6650   68.2030   79.4220 N.am  183  ALA183     -0.1966
     20  CA        13.9370   68.1140   80.6720 C.3   183  ALA183      0.1728
     21  C         12.4530   68.3010   80.3480 C.2   183  ALA183      0.2616
     22  O         12.0950   68.7600   79.2600 O.2   183  ALA183     -0.2715
     23  CB        14.4100   69.2080   81.6290 C.3   183  ALA183      0.0334
     24  N         11.5830   67.9310   81.2770 N.am  184  CYS184     -0.1954
     25  CA        10.1570   68.1260   81.0590 C.3   184  CYS184      0.1843
     26  C          9.5030   68.3040   82.4270 C.2   184  CYS184      0.2625
     27  O         10.1490   68.0760   83.4470 O.2   184  CYS184     -0.2714
     28  CB         9.5600   66.9450   80.2940 C.3   184  CYS184      0.0997
     29  SG         7.9750   67.3240   79.4630 S.3   184  CYS184     -0.0797
     30  N          8.2390   68.7240   82.4500 N.am  185  LYS185     -0.1963
     31  CA         7.5280   68.9820   83.7060 C.3   185  LYS185      0.1728
     32  C          7.8460   67.9850   84.8160 C.2   185  LYS185      0.2616
     33  O          7.6370   66.7820   84.6690 O.2   185  LYS185     -0.2715
     34  CB         6.0170   69.0180   83.4740 C.3   185  LYS185      0.0311
     35  CG         5.2240   69.4420   84.7100 C.3   185  LYS185      0.0038
     36  CD         3.8000   69.8120   84.3530 C.3   185  LYS185      0.0206
     37  CE         3.0510   70.3510   85.5620 C.3   185  LYS185      0.1093
     38  NZ         1.6310   70.6860   85.2320 N.3   185  LYS185     -0.1314
     39  N          8.3410   68.4940   85.9370 N.am  186  GLY186     -0.1955
     40  CA         8.6810   67.6250   87.0500 C.3   186  GLY186      0.1869
     41  C         10.1710   67.5900   87.3150 C.2   186  GLY186      0.2309
     42  O         10.6050   67.1880   88.3910 O.2   186  GLY186     -0.2863
     43  N         12.0020   70.3400   87.0610 N.3   188  SER188     -0.1217
     44  CA        12.3240   71.6870   87.5470 C.3   188  SER188      0.1889
     45  C         13.0790   71.5460   88.8770 C.2   188  SER188      0.2288
     46  O         12.8390   70.6030   89.6320 O.2   188  SER188     -0.2866
     47  CB        11.0330   72.5080   87.7380 C.3   188  SER188      0.2089
     48  OG        10.3250   72.5980   86.5120 O.3   188  SER188     -0.2183
     49  N         17.3810   73.2320   86.3060 N.3   206  THR206     -0.1203
     50  CA        16.2790   73.1460   85.3600 C.3   206  THR206      0.1994
     51  C         15.2730   74.2590   85.6690 C.2   206  THR206      0.2619
     52  O         14.7050   74.3220   86.7650 O.2   206  THR206     -0.2717
     53  CB        15.6560   71.7490   85.4330 C.3   206  THR206      0.1784
     54  OG1       16.6900   70.7780   85.1890 O.3   206  THR206     -0.2211
     55  CG2       14.5520   71.5920   84.3890 C.3   206  THR206      0.0376
     56  N         15.0670   75.1420   84.6920 N.am  207  SER207     -0.1937
     57  CA        14.2170   76.3080   84.8880 C.3   207  SER207      0.2055
     58  C         12.9940   76.4450   83.9660 C.2   207  SER207      0.2643
     59  O         11.8740   76.6100   84.4480 O.2   207  SER207     -0.2714
     60  CB        15.1100   77.5590   84.7970 C.3   207  SER207      0.2130
     61  OG        14.4350   78.7430   85.1850 O.3   207  SER207     -0.2179
     62  N         13.2020   76.4010   82.6530 N.am  208  TRP208     -0.1959
     63  CA        12.0840   76.5030   81.7180 C.3   208  TRP208      0.1771
     64  C         12.4620   76.2110   80.2730 C.2   208  TRP208      0.2620
     65  O         13.6130   75.9100   79.9640 O.2   208  TRP208     -0.2715
     66  CB        11.4290   77.8870   81.7860 C.3   208  TRP208      0.0590
     67  CG        12.3130   79.0070   81.3250 C.ar  208  TRP208      0.0006
     68  CD1       13.3140   79.6150   82.0360 C.ar  208  TRP208      0.0946
     69  CD2       12.3010   79.6340   80.0340 C.ar  208  TRP208      0.0152
     70  NE1       13.9230   80.5790   81.2640 N.ar  208  TRP208     -0.2442
     71  CE2       13.3190   80.6080   80.0330 C.ar  208  TRP208      0.0810
     72  CE3       11.5280   79.4640   78.8810 C.ar  208  TRP208      0.0012
     73  CZ2       13.5850   81.4070   78.9220 C.ar  208  TRP208      0.0191
     74  CZ3       11.7920   80.2600   77.7800 C.ar  208  TRP208      0.0001
     75  CH2       12.8120   81.2190   77.8080 C.ar  208  TRP208      0.0015
     76  N         11.4620   76.3080   79.4040 N.am  209  GLY209     -0.1940
     77  CA        11.6320   76.0660   77.9850 C.3   209  GLY209      0.2014
     78  C         10.2700   76.0530   77.3080 C.2   209  GLY209      0.2639
     79  O          9.2520   76.2860   77.9550 O.2   209  GLY209     -0.2714
     80  N         10.2400   75.7820   76.0090 N.am  210  GLU210     -0.1963
     81  CA         8.9800   75.7440   75.2760 C.3   210  GLU210      0.1733
     82  C          8.6910   74.3010   74.9010 C.2   210  GLU210      0.2617
     83  O          9.3830   73.7190   74.0720 O.2   210  GLU210     -0.2715
     84  CB         9.0690   76.6000   74.0080 C.3   210  GLU210      0.0429
     85  CG         7.7760   76.6540   73.2240 C.3   210  GLU210      0.1163
     86  CD         6.6290   77.1820   74.0610 C.2   210  GLU210      0.3649
     87  OE1        6.7030   78.3540   74.4880 O.co2 210  GLU210     -0.2457
     88  OE2        5.6570   76.4290   74.3000 O.co2 210  GLU210     -0.2457
     89  N          7.6630   73.7240   75.5060 N.am  211  GLY211     -0.1940
     90  CA         7.3420   72.3390   75.2210 C.3   211  GLY211      0.2014
     91  C          8.4220   71.4650   75.8320 C.2   211  GLY211      0.2639
     92  O          9.1090   71.8920   76.7640 O.2   211  GLY211     -0.2714
     93  N          8.5760   70.2470   75.3190 N.am  212  CYS212     -0.1967
     94  CA         9.5980   69.3290   75.8190 C.3   212  CYS212      0.1712
     95  C         10.3050   68.6070   74.6790 C.2   212  CYS212      0.2296
     96  O          9.6610   67.9380   73.8730 O.2   212  CYS212     -0.2864
     97  CB         8.9760   68.2870   76.7520 C.3   212  CYS212      0.0983
     98  SG         8.3720   68.9650   78.3260 S.3   212  CYS212     -0.0798
     99  N         14.5440   73.9960   70.2870 N.3   217  ARG217     -0.1245
    100  CA        14.0040   74.5490   71.5260 C.3   217  ARG217      0.1563
    101  C         14.7710   73.9590   72.7080 C.2   217  ARG217      0.2260
    102  O         14.3000   73.0530   73.3870 O.2   217  ARG217     -0.2867
    103  CB        12.5160   74.2180   71.6690 C.3   217  ARG217      0.0307
    104  CG        11.6040   74.9640   70.7130 C.3   217  ARG217      0.0489
    105  CD        11.6080   76.4690   70.9870 C.3   217  ARG217      0.2205
    106  NE        10.4680   77.1140   70.3400 N.pl3 217  ARG217     -0.0865
    107  CZ        10.0790   78.3650   70.5600 C.cat 217  ARG217      0.5346
    108  NH1       10.7370   79.1370   71.4170 N.pl3 217  ARG217      0.1354
    109  NH2        9.0150   78.8420   69.9290 N.pl3 217  ARG217      0.1354
    110  N         16.6250   73.4840   76.3820 N.3   219  GLY219     -0.1225
    111  CA        16.1400   73.6910   77.7260 C.3   219  GLY219      0.1811
    112  C         16.8750   74.8980   78.2800 C.2   219  GLY219      0.2280
    113  O         18.0340   75.1440   77.9300 O.2   219  GLY219     -0.2866
    114  N         18.3080   76.8570   81.6420 N.3   221  TYR221     -0.1241
    115  CA        18.6870   76.6060   83.0230 C.3   221  TYR221      0.1605
    116  C         19.3100   77.8170   83.6920 C.2   221  TYR221      0.2264
    117  O         19.9080   78.6720   83.0380 O.2   221  TYR221     -0.2867
    118  CB        19.6880   75.4490   83.0860 C.3   221  TYR221      0.0534
    119  CG        19.2330   74.1840   82.3990 C.ar  221  TYR221     -0.0201
    120  CD1       19.1710   74.0980   81.0100 C.ar  221  TYR221     -0.0009
    121  CD2       18.8490   73.0730   83.1430 C.ar  221  TYR221     -0.0009
    122  CE1       18.7380   72.9400   80.3850 C.ar  221  TYR221      0.0417
    123  CE2       18.4140   71.9150   82.5280 C.ar  221  TYR221      0.0417
    124  CZ        18.3570   71.8510   81.1520 C.ar  221  TYR221      0.1957
    125  OH        17.8850   70.7040   80.5490 O.3   221  TYR221     -0.2866
@<TRIPOS>BOND
     1   109   107    1
     2    99   100    1
     3   106   107    2
     4   106   105    1
     5   107   108    1
     6   104   105    1
     7   104   103    1
     8   100   103    1
     9   100   101    1
    10   101   102    2
    11    85    84    1
    12    85    86    1
    13    96    95    2
    14    84    81    1
    15    86    88   ar
    16    86    87   ar
    17    83    82    2
    18    95    94    1
    19    82    81    1
    20    82    89   am
    21    90    89    1
    22    90    91    1
    23    81    80    1
    24    93    94    1
    25    93    91   am
    26    94    97    1
    27    91    92    2
    28    80    78   am
    29    15    16    1
    30    15    12    1
    31   110   111    1
    32    11    12    1
    33    18    16   ar
    34    97    98    1
    35    16    17   ar
    36    12    13    1
    37    78    79    2
    38    78    77    1
    39   111   112    1
    40    74    75   ar
    41    74    72   ar
    42    75    73   ar
    43   113   112    2
    44    77    76    1
    45    98    29    1
    46    13    14    2
    47    13    19   am
    48    72    69   ar
    49    73    71   ar
    50    22    21    2
    51    76    64   am
    52    19    20    1
    53    29    28    1
    54    65    64    2
    55    71    69   ar
    56    71    70   ar
    57    69    67   ar
    58    64    63    1
    59    28    25    1
    60    21    20    1
    61    21    24   am
    62   122   120   ar
    63   122   124   ar
    64   125   124    1
    65    20    23    1
    66   120   119   ar
    67    25    24    1
    68    25    26    1
    69   124   123   ar
    70    70    68   ar
    71    67    66    1
    72    67    68   ar
    73   114   115    1
    74    63    66    1
    75    63    62    1
    76   119   118    1
    77   119   121   ar
    78    26    30   am
    79    26    27    2
    80    30    31    1
    81   123   121   ar
    82    62    58   am
    83   115   118    1
    84   115   116    1
    85   117   116    2
    86    34    31    1
    87    34    35    1
    88    31    32    1
    89    58    59    2
    90    58    57    1
    91    36    35    1
    92    36    37    1
    93    55    53    1
    94    33    32    2
    95    56    57    1
    96    56    51   am
    97    60    57    1
    98    60    61    1
    99    32    39   am
   100    54    53    1
   101    38    37    1
   102    50    53    1
   103    50    51    1
   104    50    49    1
   105    51    52    2
   106    39    40    1
   107    48    47    1
   108    40    41    1
   109    43    44    1
   110    41    42    2
   111    44    47    1
   112    44    45    1
   113     9    10   ar
   114     9     7   ar
   115    10     8   ar
   116     7     6   ar
   117     8     6   ar
   118     6     5    1
   119    45    46    2
   120     5     2    1
   121     2     3    1
   122     2     1    1
   123     4     3    2
