@<TRIPOS>MOLECULE
tmp/1zmnA00.pdb
 97 95 0 0 0
SMALL
GASTEIGER

@<TRIPOS>ATOM
      1  N         18.5090   50.1490   30.6020 N.3    44  HIS44      -0.1241
      2  CA        18.3750   51.5160   30.1100 C.3    44  HIS44       0.1621
      3  C         17.0460   52.1260   30.5780 C.2    44  HIS44       0.2264
      4  O         16.7490   53.3000   30.3190 O.2    44  HIS44      -0.2867
      5  CB        18.4050   51.4990   28.6090 C.3    44  HIS44       0.0745
      6  CG        17.0900   51.2030   27.9980 C.ar   44  HIS44       0.0817
      7  ND1       16.7230   49.9560   27.5450 N.ar   44  HIS44      -0.2268
      8  CD2       16.0270   51.9940   27.8090 C.ar   44  HIS44       0.1154
      9  CE1       15.4930   49.9830   27.0780 C.ar   44  HIS44       0.1986
     10  NE2       15.0540   51.2160   27.2270 N.ar   44  HIS44      -0.2212
     11  N          5.2310   55.3010   16.2290 N.3   137  LEU137     -0.1245
     12  CA         6.4160   56.0140   16.6890 C.3   137  LEU137      0.1561
     13  C          6.0210   57.2090   17.5370 C.2   137  LEU137      0.2260
     14  O          6.6180   57.4600   18.5810 O.2   137  LEU137     -0.2867
     15  CB         7.2750   56.4580   15.5010 C.3   137  LEU137      0.0270
     16  CG         8.6420   57.0160   15.8730 C.3   137  LEU137      0.0019
     17  CD1        9.1580   56.2630   17.0850 C.3   137  LEU137      0.0001
     18  CD2        9.5820   56.9000   14.6790 C.3   137  LEU137      0.0001
     19  N          5.8180   44.9470   15.9310 N.3   182  ASP182     -0.1225
     20  CA         7.0520   45.1560   16.6800 C.3   182  ASP182      0.1805
     21  C          6.8310   45.9090   17.9890 C.2   182  ASP182      0.2598
     22  O          5.7790   46.4990   18.2160 O.2   182  ASP182     -0.2718
     23  CB         8.0420   45.9180   15.7820 C.3   182  ASP182      0.1424
     24  CG         9.3470   46.2780   16.4810 C.2   182  ASP182      0.3668
     25  OD1        9.8730   45.4810   17.2910 O.co2 182  ASP182     -0.2456
     26  OD2        9.8630   47.3770   16.1760 O.co2 182  ASP182     -0.2456
     27  N          7.8310   45.8770   18.8630 N.am  183  ALA183     -0.1966
     28  CA         7.7430   46.5970   20.1260 C.3   183  ALA183      0.1728
     29  C          8.0190   48.0730   19.8530 C.2   183  ALA183      0.2616
     30  O          8.6030   48.4200   18.8210 O.2   183  ALA183     -0.2715
     31  CB         8.7710   46.0480   21.1080 C.3   183  ALA183      0.0334
     32  N          7.6060   48.9470   20.7680 N.am  184  CYS184     -0.1954
     33  CA         7.8640   50.3770   20.5950 C.3   184  CYS184      0.1843
     34  C          8.0610   51.0600   21.9500 C.2   184  CYS184      0.2625
     35  O          8.0890   50.3950   22.9890 O.2   184  CYS184     -0.2714
     36  CB         6.7260   51.0400   19.7970 C.3   184  CYS184      0.0997
     37  SG         7.1590   52.5830   18.8970 S.3   184  CYS184     -0.0797
     38  N          8.2090   52.3810   21.9410 N.am  185  LYS185     -0.1963
     39  CA         8.4390   53.1240   23.1780 C.3   185  LYS185      0.1728
     40  C          7.4310   52.7880   24.2750 C.2   185  LYS185      0.2616
     41  O          6.2250   52.9440   24.1000 O.2   185  LYS185     -0.2715
     42  CB         8.4460   54.6310   22.8960 C.3   185  LYS185      0.0311
     43  CG         8.6040   55.5080   24.1390 C.3   185  LYS185      0.0038
     44  CD         9.4110   56.7530   23.8090 C.3   185  LYS185      0.0206
     45  CE         9.2490   57.8120   24.8820 C.3   185  LYS185      0.1093
     46  NZ        10.1420   58.9900   24.6470 N.3   185  LYS185     -0.1314
     47  N          7.9380   52.3300   25.4160 N.am  186  GLY186     -0.1955
     48  CA         7.0630   51.9700   26.5140 C.3   186  GLY186      0.1869
     49  C          7.0640   50.4770   26.7500 C.2   186  GLY186      0.2309
     50  O          6.6880   50.0170   27.8260 O.2   186  GLY186     -0.2863
     51  N          9.8110   48.6960   26.5600 N.3   188  SER188     -0.1217
     52  CA        11.1360   48.3660   27.0730 C.3   188  SER188      0.1889
     53  C         11.0460   47.5770   28.3620 C.2   188  SER188      0.2288
     54  O         10.1860   47.8380   29.2070 O.2   188  SER188     -0.2866
     55  CB        11.9500   49.6400   27.3500 C.3   188  SER188      0.2089
     56  OG        12.5200   50.1580   26.1680 O.3   188  SER188     -0.2183
     57  N         12.6750   43.1890   25.8060 N.3   206  THR206     -0.1203
     58  CA        12.5280   44.2750   24.8380 C.3   206  THR206      0.1994
     59  C         13.5880   45.3350   25.1380 C.2   206  THR206      0.2619
     60  O         13.6560   45.8740   26.2540 O.2   206  THR206     -0.2717
     61  CB        11.1050   44.8790   24.9110 C.3   206  THR206      0.1784
     62  OG1       10.1430   43.8530   24.6220 O.3   206  THR206     -0.2211
     63  CG2       10.9340   45.9870   23.8940 C.3   206  THR206      0.0376
     64  N         14.4200   45.6290   24.1360 N.am  207  SER207     -0.1937
     65  CA        15.5170   46.5750   24.3110 C.3   207  SER207      0.2055
     66  C         15.5160   47.7820   23.3570 C.2   207  SER207      0.2643
     67  O         15.3770   48.9200   23.8030 O.2   207  SER207     -0.2714
     68  CB        16.8430   45.8080   24.1990 C.3   207  SER207      0.2130
     69  OG        17.9680   46.6330   24.4700 O.3   207  SER207     -0.2179
     70  N         15.6740   47.5430   22.0570 N.am  208  TRP208     -0.1959
     71  CA        15.6890   48.6460   21.0940 C.3   208  TRP208      0.1771
     72  C         15.3710   48.2530   19.6600 C.2   208  TRP208      0.2620
     73  O         15.1500   47.0800   19.3510 O.2   208  TRP208     -0.2715
     74  CB        17.0510   49.3550   21.1010 C.3   208  TRP208      0.0590
     75  CG        18.2110   48.4940   20.6730 C.ar  208  TRP208      0.0006
     76  CD1       18.8700   47.5680   21.4320 C.ar  208  TRP208      0.0946
     77  CD2       18.8780   48.5130   19.3990 C.ar  208  TRP208      0.0152
     78  NE1       19.9050   47.0180   20.7160 N.ar  208  TRP208     -0.2442
     79  CE2       19.9330   47.5820   19.4670 C.ar  208  TRP208      0.0810
     80  CE3       18.6850   49.2310   18.2110 C.ar  208  TRP208      0.0012
     81  CZ2       20.7940   47.3470   18.3970 C.ar  208  TRP208      0.0191
     82  CZ3       19.5460   48.9940   17.1420 C.ar  208  TRP208      0.0001
     83  CH2       20.5870   48.0590   17.2460 C.ar  208  TRP208      0.0015
     84  N         15.3700   49.2630   18.7910 N.am  209  GLY209     -0.1954
     85  CA        15.1000   49.0720   17.3770 C.3   209  GLY209      0.1869
     86  C         15.1770   50.4110   16.6530 C.2   209  GLY209      0.2309
     87  O         15.1640   51.4620   17.2950 O.2   209  GLY209     -0.2863
     88  N         13.3320   52.9760   14.9150 N.3   211  GLY211     -0.1210
     89  CA        11.9500   53.3260   14.6630 C.3   211  GLY211      0.1956
     90  C         11.1370   52.1830   15.2440 C.2   211  GLY211      0.2612
     91  O         11.6160   51.4810   16.1340 O.2   211  GLY211     -0.2717
     92  N          9.9200   51.9840   14.7510 N.am  212  CYS212     -0.1970
     93  CA         9.0760   50.9020   15.2360 C.3   212  CYS212      0.1712
     94  C          8.3600   50.2300   14.0810 C.2   212  CYS212      0.2296
     95  O          7.7620   50.9050   13.2440 O.2   212  CYS212     -0.2864
     96  CB         8.0380   51.4300   16.2310 C.3   212  CYS212      0.0983
     97  SG         8.7700   52.0800   17.7630 S.3   212  CYS212     -0.0798
@<TRIPOS>BOND
     1    95    94    2
     2    94    93    1
     3    89    88    1
     4    89    90    1
     5    18    16    1
     6    92    93    1
     7    92    90   am
     8    93    96    1
     9    90    91    2
    10    15    16    1
    11    15    12    1
    12    23    24    1
    13    23    20    1
    14    16    17    1
    15    19    20    1
    16    26    24   ar
    17    11    12    1
    18    96    97    1
    19    24    25   ar
    20    86    87    2
    21    86    85    1
    22    20    21    1
    23    12    13    1
    24    82    83   ar
    25    82    80   ar
    26    83    81   ar
    27    85    84    1
    28    13    14    2
    29    97    37    1
    30    21    22    2
    31    21    27   am
    32    80    77   ar
    33    81    79   ar
    34    84    72   am
    35    30    29    2
    36    27    28    1
    37    37    36    1
    38    73    72    2
    39    77    79   ar
    40    77    75   ar
    41    79    78   ar
    42    72    71    1
    43    36    33    1
    44    29    28    1
    45    29    32   am
    46    28    31    1
    47    33    32    1
    48    33    34    1
    49    75    74    1
    50    75    76   ar
    51    78    76   ar
    52    71    74    1
    53    71    70    1
    54    38    34   am
    55    38    39    1
    56    34    35    2
    57    70    66   am
    58    42    39    1
    59    42    43    1
    60    39    40    1
    61    66    67    2
    62    66    65    1
    63    44    43    1
    64    44    45    1
    65    63    61    1
    66    41    40    2
    67    64    65    1
    68    64    59   am
    69    68    65    1
    70    68    69    1
    71    40    47   am
    72    62    61    1
    73    46    45    1
    74    58    61    1
    75    58    59    1
    76    58    57    1
    77    59    60    2
    78    47    48    1
    79    56    55    1
    80    48    49    1
    81    51    52    1
    82    49    50    2
    83    52    55    1
    84    52    53    1
    85     9    10   ar
    86     9     7   ar
    87    10     8   ar
    88     7     6   ar
    89     8     6   ar
    90     6     5    1
    91    53    54    2
    92     5     2    1
    93     2     3    1
    94     2     1    1
    95     4     3    2
