@<TRIPOS>MOLECULE
tmp/1zmsA00.pdb
 182 177 0 0 0
SMALL
GASTEIGER

@<TRIPOS>ATOM
      1  N        -26.7240   36.8800   10.6790 N.3    62  LEU62      -0.1231
      2  CA       -27.2160   36.5300   12.0050 C.3    62  LEU62       0.1693
      3  C        -26.3880   37.0740   13.1650 C.2    62  LEU62       0.2592
      4  O        -26.9500   37.5770   14.1380 O.2    62  LEU62      -0.2718
      5  CB       -27.3190   35.0120   12.1320 C.3    62  LEU62       0.0284
      6  CG       -28.1180   34.3510   11.0070 C.3    62  LEU62       0.0019
      7  CD1      -28.0990   32.8410   11.2350 C.3    62  LEU62       0.0001
      8  CD2      -29.5470   34.9010   10.9500 C.3    62  LEU62       0.0001
      9  N        -25.0640   36.9720   13.0750 N.am   63  SER63      -0.1952
     10  CA       -24.2100   37.4560   14.1560 C.3    63  SER63       0.1924
     11  C        -23.0340   38.3380   13.7190 C.2    63  SER63       0.2314
     12  O        -22.7320   38.4580   12.5320 O.2    63  SER63      -0.2863
     13  CB       -23.6870   36.2710   14.9650 C.3    63  SER63       0.2116
     14  OG       -22.9860   35.3700   14.1320 O.3    63  SER63      -0.2180
     15  N        -18.9090   39.7280   15.0430 N.3    65  TYR65      -0.1241
     16  CA       -17.7830   39.4850   15.9380 C.3    65  TYR65       0.1605
     17  C        -17.0080   40.7620   16.2480 C.2    65  TYR65       0.2264
     18  O        -16.9100   41.6690   15.4140 O.2    65  TYR65      -0.2867
     19  CB       -16.8050   38.4880   15.3280 C.3    65  TYR65       0.0534
     20  CG       -17.3360   37.0940   15.1450 C.ar   65  TYR65      -0.0201
     21  CD1      -18.2100   36.7840   14.1000 C.ar   65  TYR65      -0.0009
     22  CD2      -16.9230   36.0660   15.9840 C.ar   65  TYR65      -0.0009
     23  CE1      -18.6520   35.4770   13.8930 C.ar   65  TYR65       0.0417
     24  CE2      -17.3550   34.7620   15.7890 C.ar   65  TYR65       0.0417
     25  CZ       -18.2170   34.4670   14.7440 C.ar   65  TYR65       0.1957
     26  OH       -18.6300   33.1560   14.5620 O.3    65  TYR65      -0.2866
     27  N        -19.1740   37.6740   20.2070 N.3    81  ARG81      -0.1245
     28  CA       -20.1040   37.4160   19.1390 C.3    81  ARG81       0.1563
     29  C        -21.4600   37.8690   19.6420 C.2    81  ARG81       0.2260
     30  O        -21.8450   37.5880   20.7870 O.2    81  ARG81      -0.2867
     31  CB       -20.1300   35.9270   18.8360 C.3    81  ARG81       0.0307
     32  CG       -21.0150   35.5470   17.6920 C.3    81  ARG81       0.0489
     33  CD       -21.0360   34.0520   17.5580 C.3    81  ARG81       0.2205
     34  NE       -21.5460   33.6740   16.2480 N.pl3  81  ARG81      -0.0865
     35  CZ       -21.6860   32.4220   15.8270 C.cat  81  ARG81       0.5346
     36  NH1      -21.3480   31.4090   16.6190 N.pl3  81  ARG81       0.1354
     37  NH2      -22.1730   32.1880   14.6160 N.pl3  81  ARG81       0.1354
     38  N        -25.7190   38.4710   18.4360 N.3    83  TYR83      -0.1241
     39  CA       -26.8030   38.2060   17.5010 C.3    83  TYR83       0.1605
     40  C        -27.7650   39.3300   17.8100 C.2    83  TYR83       0.2264
     41  O        -28.4020   39.3220   18.8660 O.2    83  TYR83      -0.2867
     42  CB       -27.4970   36.8830   17.7920 C.3    83  TYR83       0.0534
     43  CG       -26.6760   35.6520   17.5030 C.ar   83  TYR83      -0.0201
     44  CD1      -25.6000   35.2980   18.3190 C.ar   83  TYR83      -0.0009
     45  CD2      -26.9940   34.8160   16.4330 C.ar   83  TYR83      -0.0009
     46  CE1      -24.8670   34.1450   18.0800 C.ar   83  TYR83       0.0417
     47  CE2      -26.2640   33.6580   16.1890 C.ar   83  TYR83       0.0417
     48  CZ       -25.2060   33.3290   17.0190 C.ar   83  TYR83       0.1957
     49  OH       -24.5060   32.1620   16.8120 O.3    83  TYR83      -0.2866
     50  N        -30.4320   34.5250   19.4760 N.3    87  ASP87      -0.1225
     51  CA       -30.0730   33.1680   19.1230 C.3    87  ASP87       0.1805
     52  C        -30.6580   32.2610   20.1960 C.2    87  ASP87       0.2598
     53  O        -30.8570   32.6980   21.3350 O.2    87  ASP87      -0.2718
     54  CB       -28.5590   33.0280   19.1240 C.3    87  ASP87       0.1424
     55  CG       -28.1150   31.5920   19.0730 C.2    87  ASP87       0.3668
     56  OD1      -28.3630   30.9540   18.0300 O.co2  87  ASP87      -0.2456
     57  OD2      -27.5290   31.1010   20.0700 O.co2  87  ASP87      -0.2456
     58  N        -30.9260   31.0040   19.8420 N.am   88  GLY88      -0.1942
     59  CA       -31.4740   30.0580   20.8020 C.3    88  GLY88       0.2014
     60  C        -32.7840   30.4800   21.4410 C.2    88  GLY88       0.2638
     61  O        -33.7100   30.9270   20.7460 O.2    88  GLY88      -0.2714
     62  N        -32.8640   30.3350   22.7630 N.am   89  MET89      -0.1976
     63  CA       -34.0660   30.6990   23.5160 C.3    89  MET89       0.1605
     64  C        -34.4450   32.1890   23.4900 C.2    89  MET89       0.2287
     65  O        -35.5670   32.5580   23.8700 O.2    89  MET89      -0.2864
     66  CB       -33.9300   30.2530   24.9700 C.3    89  MET89       0.0413
     67  CG       -33.9970   28.7550   25.1420 C.3    89  MET89       0.0598
     68  SD       -35.4050   28.0770   24.2580 S.3    89  MET89      -0.1393
     69  CE       -36.7350   28.5480   25.3950 C.3    89  MET89       0.0692
     70  N        -33.8840   33.9840   20.6130 N.3    91  LYS91      -0.1245
     71  CA       -34.0920   34.2850   19.2080 C.3    91  LYS91       0.1561
     72  C        -35.3810   35.0650   18.9360 C.2    91  LYS91       0.2260
     73  O        -36.4530   34.7050   19.4140 O.2    91  LYS91      -0.2867
     74  CB       -34.0710   32.9880   18.4000 C.3    91  LYS91       0.0271
     75  CG       -34.0580   33.2090   16.9000 C.3    91  LYS91       0.0035
     76  CD       -33.5550   31.9670   16.1810 C.3    91  LYS91       0.0206
     77  CE       -33.3930   32.2450   14.6940 C.3    91  LYS91       0.1093
     78  NZ       -32.8700   31.0780   13.9400 N.3    91  LYS91      -0.1314
     79  N        -22.3460   36.4740   23.3060 N.3    98  PHE98      -0.1241
     80  CA       -21.4700   35.3750   23.6900 C.3    98  PHE98       0.1605
     81  C        -19.9800   35.7340   23.7640 C.2    98  PHE98       0.2264
     82  O        -19.5360   36.7300   23.1940 O.2    98  PHE98      -0.2867
     83  CB       -21.6570   34.2040   22.7200 C.3    98  PHE98       0.0534
     84  CG       -23.0770   33.7140   22.6230 C.ar   98  PHE98      -0.0203
     85  CD1      -23.9610   34.2780   21.7140 C.ar   98  PHE98      -0.0042
     86  CD2      -23.5340   32.6900   23.4530 C.ar   98  PHE98      -0.0042
     87  CE1      -25.2750   33.8310   21.6300 C.ar   98  PHE98      -0.0003
     88  CE2      -24.8430   32.2400   23.3770 C.ar   98  PHE98      -0.0003
     89  CZ       -25.7140   32.8100   22.4640 C.ar   98  PHE98      -0.0000
     90  N        -19.7690   35.2490   34.5550 N.3   136  PHE136     -0.1227
     91  CA       -19.7850   33.8160   34.7990 C.3   136  PHE136      0.1736
     92  C        -18.3750   33.2600   34.9390 C.2   136  PHE136      0.2595
     93  O        -17.3910   33.9330   34.6380 O.2   136  PHE136     -0.2718
     94  CB       -20.5720   33.0700   33.7050 C.3   136  PHE136      0.0547
     95  CG       -19.9840   33.1670   32.3250 C.ar  136  PHE136     -0.0202
     96  CD1      -18.7910   32.5280   32.0090 C.ar  136  PHE136     -0.0042
     97  CD2      -20.6580   33.8540   31.3210 C.ar  136  PHE136     -0.0042
     98  CE1      -18.2810   32.5670   30.7100 C.ar  136  PHE136     -0.0003
     99  CE2      -20.1560   33.8990   30.0190 C.ar  136  PHE136     -0.0003
    100  CZ       -18.9680   33.2540   29.7150 C.ar  136  PHE136     -0.0000
    101  N        -18.2910   32.0330   35.4330 N.am  137  LYS137     -0.1980
    102  CA       -17.0180   31.3540   35.6280 C.3   137  LYS137      0.1596
    103  C        -17.0070   30.1880   34.6500 C.2   137  LYS137      0.2287
    104  O        -17.8240   29.2760   34.7630 O.2   137  LYS137     -0.2864
    105  CB       -16.9210   30.8230   37.0570 C.3   137  LYS137      0.0298
    106  CG       -15.5160   30.5000   37.5190 C.3   137  LYS137      0.0038
    107  CD       -14.7270   31.7720   37.7310 C.3   137  LYS137      0.0206
    108  CE       -13.4610   31.5210   38.5290 C.3   137  LYS137      0.1093
    109  NZ       -12.5210   30.6260   37.8010 N.3   137  LYS137     -0.1314
    110  N        -17.0240   26.8940   32.6230 N.3   139  ASP139     -0.1239
    111  CA       -17.2880   25.5310   33.0600 C.3   139  ASP139      0.1674
    112  C        -16.1430   24.6650   32.5180 C.2   139  ASP139      0.2266
    113  O        -16.0040   24.5050   31.3000 O.2   139  ASP139     -0.2867
    114  CB       -18.6270   25.0520   32.4890 C.3   139  ASP139      0.1410
    115  CG       -18.9930   23.6450   32.9450 C.2   139  ASP139      0.3668
    116  OD1      -20.0320   23.1170   32.4820 O.co2 139  ASP139     -0.2456
    117  OD2      -18.2460   23.0690   33.7680 O.co2 139  ASP139     -0.2456
    118  N        -16.8090   22.3690   29.7190 N.3   142  SER142     -0.1202
    119  CA       -17.3570   22.9260   28.4880 C.3   142  SER142      0.2020
    120  C        -16.3040   22.9750   27.3880 C.2   142  SER142      0.2619
    121  O        -15.1660   23.3870   27.6130 O.2   142  SER142     -0.2717
    122  CB       -17.9250   24.3310   28.7260 C.3   142  SER142      0.2103
    123  OG       -18.5930   24.8210   27.5650 O.3   142  SER142     -0.2182
    124  N        -16.7090   22.5520   26.1960 N.am  143  SER143     -0.1937
    125  CA       -15.8510   22.5150   25.0190 C.3   143  SER143      0.2055
    126  C        -15.5150   23.9040   24.4870 C.2   143  SER143      0.2644
    127  O        -14.8670   24.0480   23.4450 O.2   143  SER143     -0.2714
    128  CB       -16.5550   21.7310   23.9250 C.3   143  SER143      0.2130
    129  OG       -17.8330   22.2960   23.6860 O.3   143  SER143     -0.2179
    130  N        -15.9720   24.9280   25.1940 N.am  144  SER144     -0.1935
    131  CA       -15.7220   26.2960   24.7800 C.3   144  SER144      0.2055
    132  C        -14.4360   26.8190   25.3920 C.2   144  SER144      0.2643
    133  O        -13.8040   27.7300   24.8520 O.2   144  SER144     -0.2714
    134  CB       -16.8830   27.1900   25.2070 C.3   144  SER144      0.2130
    135  OG       -18.0750   26.8300   24.5330 O.3   144  SER144     -0.2179
    136  N        -14.0410   26.2180   26.5080 N.am  145  PHE145     -0.1973
    137  CA       -12.8580   26.6600   27.2240 C.3   145  PHE145      0.1639
    138  C        -11.6510   25.7240   27.1720 C.2   145  PHE145      0.2290
    139  O        -10.7230   25.8450   27.9650 O.2   145  PHE145     -0.2864
    140  CB       -13.2630   26.9560   28.6680 C.3   145  PHE145      0.0560
    141  CG       -14.5070   27.8140   28.7770 C.ar  145  PHE145     -0.0200
    142  CD1      -14.5310   29.1050   28.2410 C.ar  145  PHE145     -0.0042
    143  CD2      -15.6650   27.3200   29.3820 C.ar  145  PHE145     -0.0042
    144  CE1      -15.6920   29.8910   28.3030 C.ar  145  PHE145     -0.0003
    145  CE2      -16.8290   28.0960   29.4500 C.ar  145  PHE145     -0.0003
    146  CZ       -16.8420   29.3850   28.9080 C.ar  145  PHE145     -0.0000
    147  N        -16.4240   26.9940   20.5440 N.3   154  ILE154     -0.1231
    148  CA       -17.8650   27.2600   20.6130 C.3   154  ILE154      0.1692
    149  C        -18.1470   28.4750   21.5150 C.2   154  ILE154      0.2592
    150  O        -17.6980   28.5180   22.6660 O.2   154  ILE154     -0.2718
    151  CB       -18.6450   26.0160   21.1690 C.3   154  ILE154      0.0266
    152  CG1      -18.6640   24.8880   20.1330 C.3   154  ILE154      0.0019
    153  CG2      -20.0670   26.3990   21.5330 C.3   154  ILE154      0.0020
    154  CD1      -19.2730   25.2860   18.7950 C.3   154  ILE154      0.0001
    155  N        -18.8820   29.4570   20.9850 N.am  155  ALA155     -0.1966
    156  CA       -19.2350   30.6620   21.7390 C.3   155  ALA155      0.1728
    157  C        -20.0800   30.2680   22.9330 C.2   155  ALA155      0.2617
    158  O        -20.9440   29.4120   22.8210 O.2   155  ALA155     -0.2715
    159  CB       -20.0100   31.6190   20.8630 C.3   155  ALA155      0.0334
    160  N        -19.8330   30.9010   24.0730 N.am  156  SER156     -0.1936
    161  CA       -20.5660   30.6020   25.3000 C.3   156  SER156      0.2058
    162  C        -20.9620   31.8970   26.0240 C.2   156  SER156      0.2683
    163  O        -20.1180   32.7410   26.3080 O.2   156  SER156     -0.2710
    164  CB       -19.6880   29.7170   26.1940 C.3   156  SER156      0.2130
    165  OG       -20.2760   29.4670   27.4550 O.3   156  SER156     -0.2179
    166  N        -22.2460   32.0650   26.3150 N.am  157  GLY157     -0.1715
    167  CA       -22.6640   33.2790   26.9870 C.2   157  GLY157      0.1480
    168  C        -24.1060   33.3340   27.4530 C.2   157  GLY157      0.2821
    169  O        -24.5640   32.4770   28.2150 O.2   157  GLY157     -0.2669
    170  N        -24.8290   34.3490   26.9900 N.am  158  CYS158     -0.1920
    171  CA       -26.2130   34.5420   27.3960 C.3   158  CYS158      0.1831
    172  C        -27.1560   34.8230   26.2190 C.2   158  CYS158      0.2467
    173  O        -27.2100   35.9470   25.7050 O.2   158  CYS158     -0.2730
    174  CB       -26.2860   35.6960   28.4070 C.3   158  CYS158      0.0996
    175  SG       -25.0210   35.6550   29.7360 S.3   158  CYS158     -0.0797
    176  N        -27.9170   33.7940   25.7860 N.am  159  PRO159     -0.2726
    177  CA       -28.8830   33.8480   24.6790 C.3   159  PRO159      0.1402
    178  C        -30.0070   34.8380   24.9710 C.2   159  PRO159      0.2269
    179  O        -30.5760   35.4460   24.0570 O.2   159  PRO159     -0.2865
    180  CB       -29.3940   32.4150   24.6000 C.3   159  PRO159      0.0296
    181  CG       -28.2310   31.6260   25.0810 C.3   159  PRO159      0.0237
    182  CD       -27.7920   32.4120   26.2780 C.3   159  PRO159      0.0939
@<TRIPOS>BOND
     1     1     2    1
     2     8     6    1
     3     6     7    1
     4     6     5    1
     5     2     5    1
     6     2     3    1
     7    12    11    2
     8     9     3   am
     9     9    10    1
    10     3     4    2
    11    11    10    1
    12    23    21   ar
    13    23    25   ar
    14    78    77    1
    15    21    20   ar
    16    14    13    1
    17    10    13    1
    18    26    25    1
    19    37    35    1
    20    77    76    1
    21    25    24   ar
    22    15    16    1
    23    20    19    1
    24    20    22   ar
    25    19    16    1
    26    18    17    2
    27    24    22   ar
    28    35    34    2
    29    35    36    1
    30    16    17    1
    31    76    75    1
    32    47    45   ar
    33    47    48   ar
    34    34    33    1
    35    45    43   ar
    36    49    48    1
    37    75    74    1
    38    48    46   ar
    39    39    42    1
    40    39    40    1
    41    39    38    1
    42    43    42    1
    43    43    44   ar
    44    33    32    1
    45    32    31    1
    46    40    41    2
    47    56    55   ar
    48    46    44   ar
    49    74    71    1
    50   154   152    1
    51    31    28    1
    52    72    71    1
    53    72    73    2
    54    55    54    1
    55    55    57   ar
    56    51    54    1
    57    51    50    1
    58    51    52    1
    59    28    29    1
    60    28    27    1
    61    71    70    1
    62    29    30    2
    63    58    52   am
    64    58    59    1
    65   152   151    1
    66    52    53    2
    67   147   148    1
    68   148   151    1
    69   148   149    1
    70    61    60    2
    71    59    60    1
    72   159   156    1
    73   155   149   am
    74   155   156    1
    75   151   153    1
    76    60    62   am
    77   149   150    2
    78    87    85   ar
    79    87    89   ar
    80    85    84   ar
    81   156   157    1
    82    89    88   ar
    83    84    83    1
    84    84    86   ar
    85    83    80    1
    86    62    63    1
    87   158   157    2
    88   157   160   am
    89    82    81    2
    90    79    80    1
    91    88    86   ar
    92   127   126    2
    93    64    63    1
    94    64    65    2
    95    63    66    1
    96   129   128    1
    97    80    81    1
    98   128   125    1
    99   179   178    2
   100   160   161    1
   101    68    67    1
   102    68    69    1
   103   126   125    1
   104   126   130   am
   105   135   134    1
   106   180   177    1
   107   180   181    1
   108   177   178    1
   109   177   176    1
   110   131   130    1
   111   131   134    1
   112   131   132    1
   113   133   132    2
   114    66    67    1
   115   125   124    1
   116   181   182    1
   117   161   162    1
   118   161   164    1
   119   132   136   am
   120   173   172    2
   121   176   172   am
   122   176   182    1
   123   162   163    2
   124   162   166    1
   125   164   165    1
   126   124   120   am
   127   172   171    1
   128   166   167    2
   129   136   137    1
   130   167   168    1
   131   170   171    1
   132   170   168   am
   133   138   137    1
   134   138   139    2
   135   137   140    1
   136   120   121    2
   137   120   119    1
   138   171   174    1
   139   168   169    2
   140   123   122    1
   141   142   144   ar
   142   142   141   ar
   143   144   146   ar
   144   174   175    1
   145   119   122    1
   146   119   118    1
   147   140   141    1
   148   141   143   ar
   149   146   145   ar
   150   143   145   ar
   151   100    99   ar
   152   100    98   ar
   153    99    97   ar
   154    98    96   ar
   155   113   112    2
   156    97    95   ar
   157    96    95   ar
   158    95    94    1
   159   116   115   ar
   160   114   115    1
   161   114   111    1
   162   112   111    1
   163   110   111    1
   164   115   117   ar
   165    94    91    1
   166    90    91    1
   167    93    92    2
   168   103   104    2
   169   103   102    1
   170    91    92    1
   171    92   101   am
   172   101   102    1
   173   102   105    1
   174   105   106    1
   175   106   107    1
   176   107   108    1
   177   109   108    1
