@<TRIPOS>MOLECULE
tmp/1zmxG00.pdb
 164 154 0 0 0
SMALL
GASTEIGER

@<TRIPOS>ATOM
      1  N         49.4040   40.9750   63.7880 N.3    18  ILE18      -0.1245
      2  CA        49.7890   42.3730   63.9100 C.3    18  ILE18       0.1561
      3  C         49.8780   42.8750   62.4770 C.2    18  ILE18       0.2260
      4  O         50.4380   42.1930   61.6080 O.2    18  ILE18      -0.2867
      5  CB        51.1440   42.5270   64.6130 C.3    18  ILE18       0.0252
      6  CG1       51.1160   41.8820   65.9930 C.3    18  ILE18       0.0019
      7  CG2       51.5210   44.0010   64.7340 C.3    18  ILE18       0.0019
      8  CD1       52.4830   41.7830   66.6420 C.3    18  ILE18       0.0001
      9  N         43.3150   45.5260   61.3840 N.3    22  LYS22      -0.1245
     10  CA        42.1940   45.4750   62.3120 C.3    22  LYS22       0.1561
     11  C         41.7190   46.8800   62.7140 C.2    22  LYS22       0.2260
     12  O         40.5220   47.1600   62.6890 O.2    22  LYS22      -0.2867
     13  CB        42.5720   44.6630   63.5430 C.3    22  LYS22       0.0271
     14  CG        42.5470   43.1690   63.3170 C.3    22  LYS22       0.0035
     15  CD        43.0100   42.4030   64.5470 C.3    22  LYS22       0.0206
     16  CE        44.5340   42.3400   64.6190 C.3    22  LYS22       0.1093
     17  NZ        45.0720   43.1900   65.7220 N.3    22  LYS22      -0.1314
     18  N         41.1730   47.0440   70.9110 N.3    41  GLU41      -0.1245
     19  CA        42.2100   46.4390   71.7360 C.3    41  GLU41       0.1567
     20  C         42.6930   47.4490   72.7750 C.2    41  GLU41       0.2260
     21  O         43.0300   48.5680   72.4100 O.2    41  GLU41      -0.2867
     22  CB        43.3670   46.0350   70.8460 C.3    41  GLU41       0.0388
     23  CG        44.0570   44.7580   71.2670 C.3    41  GLU41       0.1160
     24  CD        45.3130   44.5020   70.4640 C.2    41  GLU41       0.3649
     25  OE1       45.7790   45.4360   69.7600 O.co2  41  GLU41      -0.2457
     26  OE2       45.8270   43.3640   70.5370 O.co2  41  GLU41      -0.2457
     27  N         45.2090   48.8050   74.2360 N.3    43  VAL43      -0.1245
     28  CA        46.6440   49.0710   74.2680 C.3    43  VAL43       0.1561
     29  C         46.9540   50.2100   75.2280 C.2    43  VAL43       0.2260
     30  O         47.9780   50.1860   75.9210 O.2    43  VAL43      -0.2867
     31  CB        47.2270   49.4430   72.8800 C.3    43  VAL43       0.0252
     32  CG1       48.5610   48.7710   72.6730 C.3    43  VAL43       0.0019
     33  CG2       46.2740   49.0890   71.7560 C.3    43  VAL43       0.0019
     34  N         47.5920   49.0560   78.5540 N.3    46  TRP46      -0.1241
     35  CA        48.8450   48.3180   78.6910 C.3    46  TRP46       0.1605
     36  C         50.0330   49.2530   78.7320 C.2    46  TRP46       0.2264
     37  O         51.0670   48.9350   79.3170 O.2    46  TRP46      -0.2867
     38  CB        49.0370   47.3330   77.5380 C.3    46  TRP46       0.0550
     39  CG        47.8990   46.4030   77.3090 C.ar   46  TRP46       0.0003
     40  CD1       46.9100   46.0830   78.1870 C.ar   46  TRP46       0.0946
     41  CD2       47.6360   45.6610   76.1230 C.ar   46  TRP46       0.0152
     42  NE1       46.0380   45.1900   77.6180 N.ar   46  TRP46      -0.2442
     43  CE2       46.4630   44.9130   76.3470 C.ar   46  TRP46       0.0810
     44  CE3       48.2690   45.5520   74.8840 C.ar   46  TRP46       0.0012
     45  CZ2       45.9110   44.0750   75.3830 C.ar   46  TRP46       0.0191
     46  CZ3       47.7200   44.7200   73.9260 C.ar   46  TRP46       0.0001
     47  CH2       46.5510   43.9940   74.1800 C.ar   46  TRP46       0.0015
     48  N         53.7330   47.2460   78.0440 N.3    55  LEU55      -0.1245
     49  CA        54.0010   46.8320   76.6680 C.3    55  LEU55       0.1561
     50  C         55.4540   47.0960   76.2910 C.2    55  LEU55       0.2260
     51  O         56.1160   46.2360   75.7150 O.2    55  LEU55      -0.2867
     52  CB        53.0490   47.5330   75.6960 C.3    55  LEU55       0.0270
     53  CG        53.2010   47.2560   74.2010 C.3    55  LEU55       0.0019
     54  CD1       53.0240   45.7820   73.8860 C.3    55  LEU55       0.0001
     55  CD2       52.2090   48.0860   73.4150 C.3    55  LEU55       0.0001
     56  N         57.9630   44.9610   78.0610 N.3    58  MET58      -0.1230
     57  CA        57.9110   43.6070   77.5290 C.3    58  MET58       0.1702
     58  C         58.8050   43.4480   76.3010 C.2    58  MET58       0.2592
     59  O         59.5600   42.4760   76.2030 O.2    58  MET58      -0.2718
     60  CB        56.4740   43.2170   77.2030 C.3    58  MET58       0.0401
     61  CG        56.2860   41.7410   76.9220 C.3    58  MET58       0.0596
     62  SD        56.2870   41.3150   75.1620 S.3    58  MET58      -0.1393
     63  CE        55.6920   42.7840   74.3630 C.3    58  MET58       0.0692
     64  N         58.7160   44.3990   75.3700 N.am   59  TYR59      -0.1976
     65  CA        59.5720   44.3930   74.1780 C.3    59  TYR59       0.1639
     66  C         61.0410   44.6670   74.5470 C.2    59  TYR59       0.2290
     67  O         61.9540   44.1310   73.9180 O.2    59  TYR59      -0.2864
     68  CB        59.0520   45.3600   73.0920 C.3    59  TYR59       0.0560
     69  CG        57.9150   44.7920   72.2410 C.ar   59  TYR59      -0.0198
     70  CD1       56.7380   45.5250   72.0240 C.ar   59  TYR59      -0.0009
     71  CD2       58.0130   43.5180   71.6520 C.ar   59  TYR59      -0.0009
     72  CE1       55.6790   45.0040   71.2430 C.ar   59  TYR59       0.0417
     73  CE2       56.9630   42.9880   70.8690 C.ar   59  TYR59       0.0417
     74  CZ        55.8010   43.7370   70.6690 C.ar   59  TYR59       0.1957
     75  OH        54.7720   43.2170   69.9050 O.3    59  TYR59      -0.2866
     76  N         53.0490   41.2650   81.8880 N.3    69  PHE69      -0.1227
     77  CA        52.3810   41.9090   80.7730 C.3    69  PHE69       0.1736
     78  C         51.2140   41.0650   80.2540 C.2    69  PHE69       0.2595
     79  O         50.0870   41.5540   80.1870 O.2    69  PHE69      -0.2718
     80  CB        53.3570   42.2400   79.6530 C.3    69  PHE69       0.0547
     81  CG        52.6850   42.5910   78.3650 C.ar   69  PHE69      -0.0202
     82  CD1       52.0580   43.8100   78.2090 C.ar   69  PHE69      -0.0042
     83  CD2       52.6530   41.6850   77.3120 C.ar   69  PHE69      -0.0042
     84  CE1       51.4210   44.1280   77.0200 C.ar   69  PHE69      -0.0003
     85  CE2       52.0150   41.9970   76.1260 C.ar   69  PHE69      -0.0003
     86  CZ        51.4020   43.2200   75.9790 C.ar   69  PHE69      -0.0000
     87  N         51.4830   39.8050   79.8990 N.am   70  GLN70      -0.1979
     88  CA        50.4400   38.9030   79.4100 C.3    70  GLN70       0.1601
     89  C         49.3350   38.7020   80.4400 C.2    70  GLN70       0.2287
     90  O         48.1370   38.7090   80.0950 O.2    70  GLN70      -0.2864
     91  CB        51.0170   37.5530   79.0070 C.3    70  GLN70       0.0394
     92  CG        51.6560   37.5180   77.6240 C.3    70  GLN70       0.0908
     93  CD        50.7700   38.0600   76.4890 C.2    70  GLN70       0.2608
     94  OE1       51.2590   38.8020   75.6310 O.2    70  GLN70      -0.2717
     95  NE2       49.4870   37.6790   76.4700 N.am   70  GLN70      -0.0878
     96  N         47.2860   41.6700   80.1540 N.3    73  VAL73      -0.1245
     97  CA        46.4910   41.5750   78.9300 C.3    73  VAL73       0.1561
     98  C         45.2540   40.7330   79.1980 C.2    73  VAL73       0.2260
     99  O         44.1330   41.1640   78.8980 O.2    73  VAL73      -0.2867
    100  CB        47.2890   40.9520   77.7740 C.3    73  VAL73       0.0252
    101  CG1       46.3820   40.6220   76.5950 C.3    73  VAL73       0.0019
    102  CG2       48.3940   41.8920   77.3440 C.3    73  VAL73       0.0019
    103  N         41.3600   42.0080   78.8190 N.3    77  MET77      -0.1245
    104  CA        40.4710   41.2810   77.9390 C.3    77  MET77       0.1570
    105  C         39.1870   40.9360   78.6750 C.2    77  MET77       0.2261
    106  O         38.0980   41.2510   78.1900 O.2    77  MET77      -0.2867
    107  CB        41.1480   40.0250   77.3900 C.3    77  MET77       0.0387
    108  CG        42.2250   40.3130   76.3620 C.3    77  MET77       0.0595
    109  SD        41.6080   41.1840   74.9050 S.3    77  MET77      -0.1393
    110  CE        43.1140   41.4290   74.0410 C.3    77  MET77       0.0692
    111  N         40.4440   41.6930   68.9630 N.3    94  ARG94      -0.1245
    112  CA        41.1910   40.6570   69.6960 C.3    94  ARG94       0.1563
    113  C         40.3990   40.1640   70.9120 C.2    94  ARG94       0.2260
    114  O         39.2820   40.6270   71.1500 O.2    94  ARG94      -0.2867
    115  CB        42.5700   41.1630   70.1020 C.3    94  ARG94       0.0307
    116  CG        43.5340   41.3020   68.9530 C.3    94  ARG94       0.0489
    117  CD        44.6910   40.3520   69.0640 C.3    94  ARG94       0.2205
    118  NE        45.5260   40.2910   67.8680 N.pl3  94  ARG94      -0.0865
    119  CZ        46.5330   41.1140   67.6250 C.cat  94  ARG94       0.5346
    120  NH1       46.8280   42.0930   68.4710 N.pl3  94  ARG94       0.1354
    121  NH2       47.2390   40.9700   66.5160 N.pl3  94  ARG94       0.1354
    122  N         45.0450   36.0950   72.8900 N.3    99  ALA99      -0.1245
    123  CA        46.0730   36.2820   73.9030 C.3    99  ALA99       0.1562
    124  C         46.6280   34.9260   74.3180 C.2    99  ALA99       0.2260
    125  O         47.8420   34.7260   74.3480 O.2    99  ALA99      -0.2867
    126  CB        45.5030   37.0090   75.0910 C.3    99  ALA99       0.0290
    127  N         49.5280   34.6240   71.3650 N.3   103  PHE103     -0.1241
    128  CA        50.5930   35.3780   71.9880 C.3   103  PHE103      0.1605
    129  C         51.2740   34.6230   73.1280 C.2   103  PHE103      0.2264
    130  O         52.4890   34.4300   73.0870 O.2   103  PHE103     -0.2867
    131  CB        50.1120   36.7540   72.3930 C.3   103  PHE103      0.0534
    132  CG        49.7760   37.6210   71.2260 C.ar  103  PHE103     -0.0203
    133  CD1       48.4770   37.6660   70.7270 C.ar  103  PHE103     -0.0042
    134  CD2       50.7590   38.3760   70.5990 C.ar  103  PHE103     -0.0042
    135  CE1       48.1580   38.4660   69.6340 C.ar  103  PHE103     -0.0003
    136  CE2       50.4520   39.1720   69.5090 C.ar  103  PHE103     -0.0003
    137  CZ        49.1430   39.2150   69.0250 C.ar  103  PHE103     -0.0000
    138  N         55.1110   33.0960   73.0080 N.3   107  MET107     -0.1245
    139  CA        56.0600   33.5300   74.0240 C.3   107  MET107      0.1570
    140  C         56.6910   32.3640   74.7950 C.2   107  MET107      0.2261
    141  O         57.8680   32.4380   75.1810 O.2   107  MET107     -0.2867
    142  CB        55.3910   34.4960   74.9850 C.3   107  MET107      0.0387
    143  CG        55.7280   35.9130   74.6920 C.3   107  MET107      0.0595
    144  SD        54.4840   36.9630   75.3960 S.3   107  MET107     -0.1393
    145  CE        54.2850   38.2130   74.1060 C.3   107  MET107      0.0692
    146  N         58.9860   45.1440   64.4850 N.3   157  VAL157     -0.1245
    147  CA        58.8650   43.7120   64.7530 C.3   157  VAL157      0.1561
    148  C         59.3360   42.8340   63.5780 C.2   157  VAL157      0.2260
    149  O         58.8670   43.0040   62.4460 O.2   157  VAL157     -0.2867
    150  CB        57.3840   43.3680   65.0260 C.3   157  VAL157      0.0252
    151  CG1       57.1420   43.2010   66.5180 C.3   157  VAL157      0.0019
    152  CG2       56.4630   44.4330   64.4320 C.3   157  VAL157      0.0019
    153  N         58.7900   36.8060   63.6460 N.3   161  TYR161     -0.1241
    154  CA        57.7650   36.8990   64.6850 C.3   161  TYR161      0.1605
    155  C         56.3750   36.8820   64.0530 C.2   161  TYR161      0.2264
    156  O         55.4980   36.1310   64.4830 O.2   161  TYR161     -0.2867
    157  CB        57.9780   38.1760   65.5080 C.3   161  TYR161      0.0534
    158  CG        57.1240   38.3390   66.7620 C.ar  161  TYR161     -0.0201
    159  CD1       57.2350   37.4550   67.8410 C.ar  161  TYR161     -0.0009
    160  CD2       56.2350   39.4130   66.8800 C.ar  161  TYR161     -0.0009
    161  CE1       56.4600   37.6300   68.9980 C.ar  161  TYR161      0.0417
    162  CE2       55.4600   39.5940   68.0170 C.ar  161  TYR161      0.0417
    163  CZ        55.5750   38.7070   69.0760 C.ar  161  TYR161      0.1957
    164  OH        54.7980   38.9020   70.2040 O.3   161  TYR161     -0.2866
@<TRIPOS>BOND
     1     9    10    1
     2     4     3    2
     3    10    11    1
     4    10    13    1
     5   149   148    2
     6     3     2    1
     7    12    11    2
     8    14    13    1
     9    14    15    1
    10   148   147    1
    11   153   154    1
    12     1     2    1
    13     2     5    1
    14   155   156    2
    15   155   154    1
    16   152   150    1
    17   146   147    1
    18    15    16    1
    19     5     7    1
    20     5     6    1
    21    16    17    1
    22   154   157    1
    23   147   150    1
    24   150   151    1
    25   157   158    1
    26     6     8    1
    27   121   119    1
    28   158   160   ar
    29   158   159   ar
    30   160   162   ar
    31   119   118    2
    32   119   120    1
    33   159   161   ar
    34   118   117    1
    35   162   163   ar
    36   116   117    1
    37   116   115    1
    38   111   112    1
    39   161   163   ar
    40   137   136   ar
    41   137   135   ar
    42   163   164    1
    43   136   134   ar
    44   135   133   ar
    45   112   115    1
    46   112   113    1
    47    25    24   ar
    48    75    74    1
    49    24    26   ar
    50    24    23    1
    51   134   132   ar
    52    74    73   ar
    53    74    72   ar
    54   133   132   ar
    55    22    23    1
    56    22    19    1
    57    73    71   ar
    58    18    19    1
    59   113   114    2
    60   132   131    1
    61    72    70   ar
    62   127   128    1
    63    71    69   ar
    64    19    20    1
    65    33    31    1
    66   128   131    1
    67   128   129    1
    68    70    69   ar
    69    69    68    1
    70    21    20    2
    71    32    31    1
    72    31    28    1
    73   122   123    1
    74   138   139    1
    75   130   129    2
    76    68    65    1
    77    55    53    1
    78    54    53    1
    79   123   124    1
    80   123   126    1
    81    67    66    2
    82    46    47   ar
    83    46    44   ar
    84   139   140    1
    85   139   142    1
    86   110   109    1
    87   145   144    1
    88    65    66    1
    89    65    64    1
    90    47    45   ar
    91    53    52    1
    92    27    28    1
    93    28    29    1
    94   124   125    2
    95    63    62    1
    96   143   142    1
    97   143   144    1
    98   140   141    2
    99    44    41   ar
   100   109   108    1
   101    62    61    1
   102    29    30    2
   103    64    58   am
   104    45    43   ar
   105    94    93    2
   106    52    49    1
   107    51    50    2
   108    86    85   ar
   109    86    84   ar
   110    41    43   ar
   111    41    39   ar
   112    85    83   ar
   113    59    58    2
   114    50    49    1
   115    58    57    1
   116    43    42   ar
   117   108   107    1
   118    95    93   am
   119    93    92    1
   120   101   100    1
   121    49    48    1
   122    61    60    1
   123    84    82   ar
   124    60    57    1
   125    39    38    1
   126    39    40   ar
   127    83    81   ar
   128   102   100    1
   129   107   104    1
   130    57    56    1
   131    38    35    1
   132    42    40   ar
   133    92    91    1
   134   100    97    1
   135   104   105    1
   136   104   103    1
   137   106   105    2
   138    82    81   ar
   139    81    80    1
   140    34    35    1
   141    35    36    1
   142    36    37    2
   143    99    98    2
   144    97    98    1
   145    97    96    1
   146    91    88    1
   147    88    87    1
   148    88    89    1
   149    80    77    1
   150    87    78   am
   151    90    89    2
   152    79    78    2
   153    78    77    1
   154    77    76    1
