@<TRIPOS>MOLECULE
tmp/1zn7A01.pdb
 121 117 0 0 0
SMALL
GASTEIGER

@<TRIPOS>ATOM
      1  N         23.0010    7.6340    0.0730 N.3    63  ASP63      -0.1239
      2  CA        23.3130    7.1870   -1.2990 C.3    63  ASP63       0.1674
      3  C         24.7130    7.6240   -1.7520 C.2    63  ASP63       0.2266
      4  O         24.9980    8.8060   -1.6570 O.2    63  ASP63      -0.2867
      5  CB        22.2170    7.8370   -2.1720 C.3    63  ASP63       0.1410
      6  CG        22.1470    7.3270   -3.5850 C.2    63  ASP63       0.3668
      7  OD1       21.2160    7.7970   -4.3190 O.co2  63  ASP63      -0.2456
      8  OD2       22.9470    6.4740   -3.9590 O.co2  63  ASP63      -0.2456
      9  N         27.2500    4.6430   -1.0470 N.3    65  ARG65      -0.1245
     10  CA        28.0180    3.7310   -0.1680 C.3    65  ARG65       0.1563
     11  C         27.4660    3.5960    1.2720 C.2    65  ARG65       0.2260
     12  O         27.6350    2.5670    1.9350 O.2    65  ARG65      -0.2867
     13  CB        29.4900    4.1280   -0.1610 C.3    65  ARG65       0.0307
     14  CG        30.2610    3.7270   -1.4030 C.3    65  ARG65       0.0489
     15  CD        31.7060    4.2060   -1.2690 C.3    65  ARG65       0.2205
     16  NE        31.9880    5.3880   -2.0760 N.pl3  65  ARG65      -0.0865
     17  CZ        32.9500    6.2800   -1.8810 C.cat  65  ARG65       0.5346
     18  NH1       33.7530    6.2380   -0.8440 N.pl3  65  ARG65       0.1354
     19  NH2       33.0820    7.2410   -2.7440 N.pl3  65  ARG65       0.1354
     20  N         20.6940   10.6710   -3.9860 N.3    86  LYS86      -0.1245
     21  CA        21.0890   11.6390   -4.9790 C.3    86  LYS86       0.1561
     22  C         19.8080   12.0930   -5.7090 C.2    86  LYS86       0.2260
     23  O         18.8990   11.2950   -5.9690 O.2    86  LYS86      -0.2867
     24  CB        22.1180   11.0380   -5.9460 C.3    86  LYS86       0.0271
     25  CG        23.3600   10.4770   -5.2250 C.3    86  LYS86       0.0035
     26  CD        24.4650   11.5010   -5.1590 C.3    86  LYS86       0.0206
     27  CE        25.7110   10.9110   -4.5490 C.3    86  LYS86       0.1093
     28  NZ        26.9070   11.3240   -5.3090 N.3    86  LYS86      -0.1314
     29  N         25.1210   20.8540   -2.4060 N.3    99  TYR99      -0.1227
     30  CA        26.3740   20.8540   -1.7160 C.3    99  TYR99       0.1736
     31  C         27.4690   20.7910   -2.8050 C.2    99  TYR99       0.2596
     32  O         27.2000   20.5790   -3.9900 O.2    99  TYR99      -0.2718
     33  CB        26.3960   19.7010   -0.6840 C.3    99  TYR99       0.0548
     34  CG        26.3190   18.3270   -1.2720 C.ar   99  TYR99      -0.0200
     35  CD1       25.1190   17.8080   -1.6950 C.ar   99  TYR99      -0.0009
     36  CD2       27.4720   17.5470   -1.4570 C.ar   99  TYR99      -0.0009
     37  CE1       25.0470   16.5080   -2.2740 C.ar   99  TYR99       0.0417
     38  CE2       27.4140   16.2620   -2.0320 C.ar   99  TYR99       0.0417
     39  CZ        26.2040   15.7670   -2.4340 C.ar   99  TYR99       0.1957
     40  OH        26.1450   14.5090   -3.0010 O.3    99  TYR99      -0.2866
     41  N         28.6970   21.0610   -2.3920 N.am  100  SER100     -0.1938
     42  CA        29.8150   21.1520   -3.2990 C.3   100  SER100      0.2055
     43  C         30.4120   19.7590   -3.2830 C.2   100  SER100      0.2642
     44  O         30.7370   19.2350   -2.2130 O.2   100  SER100     -0.2714
     45  CB        30.7830   22.2370   -2.8040 C.3   100  SER100      0.2130
     46  OG        32.0920   22.0230   -3.2390 O.3   100  SER100     -0.2179
     47  N         30.5050   19.1510   -4.4610 N.am  101  LEU101     -0.1977
     48  CA        31.1630   17.8650   -4.6440 C.3   101  LEU101      0.1596
     49  C         32.0980   18.0600   -5.8220 C.2   101  LEU101      0.2287
     50  O         31.6580   18.5010   -6.9060 O.2   101  LEU101     -0.2864
     51  CB        30.1440   16.7520   -4.9620 C.3   101  LEU101      0.0297
     52  CG        30.5930   15.2690   -4.8140 C.3   101  LEU101      0.0022
     53  CD1       31.6860   14.8520   -5.8060 C.3   101  LEU101      0.0001
     54  CD2       31.0700   15.0010   -3.4100 C.3   101  LEU101      0.0001
     55  N         27.1420    7.0950    6.8110 N.3   125  ASP125     -0.1225
     56  CA        27.8050    7.0150    5.5320 C.3   125  ASP125      0.1805
     57  C         29.1270    6.2530    5.7250 C.2   125  ASP125      0.2598
     58  O         29.5760    6.0370    6.8460 O.2   125  ASP125     -0.2718
     59  CB        28.0860    8.4290    5.0120 C.3   125  ASP125      0.1424
     60  CG        28.1180    8.5270    3.4730 C.2   125  ASP125      0.3668
     61  OD1       28.0640    7.5060    2.7500 O.co2 125  ASP125     -0.2456
     62  OD2       28.2550    9.6620    2.9840 O.co2 125  ASP125     -0.2456
     63  N         29.7630    5.8790    4.6300 N.am  126  ASP126     -0.1960
     64  CA        31.0140    5.1540    4.7350 C.3   126  ASP126      0.1840
     65  C         32.1630    6.0300    5.2340 C.2   126  ASP126      0.2622
     66  O         32.9870    5.5820    6.0290 O.2   126  ASP126     -0.2715
     67  CB        31.3570    4.4490    3.4090 C.3   126  ASP126      0.1450
     68  CG        31.7450    5.4010    2.2900 C.2   126  ASP126      0.3671
     69  OD1       32.6560    4.9760    1.6020 O.co2 126  ASP126     -0.2456
     70  OD2       31.1360    6.4830    2.0620 O.co2 126  ASP126     -0.2456
     71  N         32.1630    7.2890    4.7720 N.am  127  LEU127     -0.1963
     72  CA        33.3480    8.1430    4.8600 C.3   127  LEU127      0.1728
     73  C         32.9360    9.6110    5.0000 C.2   127  LEU127      0.2616
     74  O         32.0900   10.1150    4.2530 O.2   127  LEU127     -0.2715
     75  CB        34.1820    7.9790    3.5740 C.3   127  LEU127      0.0311
     76  CG        35.5170    8.6430    3.1470 C.3   127  LEU127      0.0022
     77  CD1       35.7200   10.0470    3.6280 C.3   127  LEU127      0.0001
     78  CD2       36.7590    7.7990    3.4180 C.3   127  LEU127      0.0001
     79  N         33.5360   10.2730    5.9730 N.am  128  LEU128     -0.1963
     80  CA        33.4610   11.7360    6.1430 C.3   128  LEU128      0.1728
     81  C         34.7680   12.4020    5.6650 C.2   128  LEU128      0.2616
     82  O         35.8450   12.1310    6.2080 O.2   128  LEU128     -0.2715
     83  CB        33.2570   12.1060    7.6040 C.3   128  LEU128      0.0311
     84  CG        32.9910   13.6170    7.8900 C.3   128  LEU128      0.0022
     85  CD1       31.4780   13.8380    7.6390 C.3   128  LEU128      0.0001
     86  CD2       33.3700   13.9440    9.3140 C.3   128  LEU128      0.0001
     87  N         34.6460   13.2850    4.6890 N.am  129  ALA129     -0.1963
     88  CA        35.7680   14.0160    4.0960 C.3   129  ALA129      0.1728
     89  C         35.5260   15.5140    4.4270 C.2   129  ALA129      0.2617
     90  O         35.6520   15.9160    5.5780 O.2   129  ALA129     -0.2715
     91  CB        35.8560   13.7040    2.5980 C.3   129  ALA129      0.0334
     92  N         35.0890   16.3120    3.4820 N.am  130  THR130     -0.1937
     93  CA        34.7400   17.7010    3.7820 C.3   130  THR130      0.2028
     94  C         33.5020   17.8430    4.7100 C.2   130  THR130      0.2643
     95  O         33.3250   18.8760    5.3930 O.2   130  THR130     -0.2714
     96  CB        34.4990   18.5160    2.5190 C.3   130  THR130      0.1808
     97  OG1       33.2860   18.1050    1.8630 O.3   130  THR130     -0.2208
     98  CG2       35.6650   18.4240    1.5240 C.3   130  THR130      0.0379
     99  N         32.6570   16.8070    4.7520 N.am  131  GLY131     -0.1939
    100  CA        31.3900   16.8710    5.4590 C.3   131  GLY131      0.2014
    101  C         30.2520   17.5120    4.6500 C.2   131  GLY131      0.2639
    102  O         29.1740   17.6780    5.1710 O.2   131  GLY131     -0.2714
    103  N         30.4710   17.8310    3.3880 N.am  132  GLY132     -0.1939
    104  CA        29.4470   18.4350    2.5680 C.3   132  GLY132      0.2014
    105  C         28.2310   17.5140    2.3950 C.2   132  GLY132      0.2640
    106  O         27.1040   17.9800    2.4050 O.2   132  GLY132     -0.2714
    107  N         28.4670   16.2200    2.2180 N.am  133  THR133     -0.1936
    108  CA        27.4030   15.2470    1.9900 C.3   133  THR133      0.2028
    109  C         26.6140   15.0990    3.2670 C.2   133  THR133      0.2642
    110  O         25.3730   15.1420    3.2700 O.2   133  THR133     -0.2714
    111  CB        27.9940   13.8940    1.5490 C.3   133  THR133      0.1808
    112  OG1       28.7560   14.0820    0.3540 O.3   133  THR133     -0.2208
    113  CG2       26.9380   12.8570    1.2770 C.3   133  THR133      0.0379
    114  N         27.3140   14.8740    4.3630 N.am  134  MET134     -0.1976
    115  CA        26.6400   14.7000    5.6320 C.3   134  MET134      0.1605
    116  C         25.8610   15.9380    6.0930 C.2   134  MET134      0.2287
    117  O         24.7610   15.8360    6.6950 O.2   134  MET134     -0.2864
    118  CB        27.6070   14.2450    6.7260 C.3   134  MET134      0.0413
    119  CG        27.6320   12.7360    6.8740 C.3   134  MET134      0.0598
    120  SD        28.8730   12.1880    8.0530 S.3   134  MET134     -0.1393
    121  CE        28.8900   10.4230    7.7810 C.3   134  MET134      0.0692
@<TRIPOS>BOND
     1    50    49    2
     2    23    22    2
     3    24    25    1
     4    24    21    1
     5    49    48    1
     6    53    52    1
     7    22    21    1
     8    28    27    1
     9    25    26    1
    10    26    27    1
    11    21    20    1
    12    51    52    1
    13    51    48    1
    14    52    54    1
    15    48    47    1
    16    47    43   am
    17     7     6   ar
    18    32    31    2
    19     8     6   ar
    20     6     5    1
    21    42    43    1
    22    42    45    1
    23    42    41    1
    24    43    44    2
    25    46    45    1
    26    40    39    1
    27    31    41   am
    28    31    30    1
    29    19    17    1
    30    39    37   ar
    31    39    38   ar
    32    29    30    1
    33    37    35   ar
    34     5     2    1
    35    16    17    2
    36    16    15    1
    37    38    36   ar
    38    17    18    1
    39     3     4    2
    40     3     2    1
    41    30    33    1
    42    35    34   ar
    43    36    34   ar
    44    14    15    1
    45    14    13    1
    46     2     1    1
    47    34    33    1
    48     9    10    1
    49    10    13    1
    50    10    11    1
    51   112   111    1
    52    11    12    2
    53   113   111    1
    54    98    96    1
    55   111   108    1
    56    69    68   ar
    57    97    96    1
    58   108   107    1
    59   108   109    1
    60    70    68   ar
    61   107   105   am
    62    68    67    1
    63   105   106    2
    64   105   104    1
    65    96    93    1
    66   104   103    1
    67    91    88    1
    68    61    60   ar
    69    62    60   ar
    70    76    78    1
    71    76    75    1
    72    76    77    1
    73   109   110    2
    74   109   114   am
    75   103   101   am
    76    67    64    1
    77    60    59    1
    78    92    93    1
    79    92    89   am
    80    75    72    1
    81    93    94    1
    82    88    89    1
    83    88    87    1
    84    74    73    2
    85   114   115    1
    86    89    90    2
    87    63    64    1
    88    63    57   am
    89   101   102    2
    90   101   100    1
    91    87    81   am
    92    94    99   am
    93    94    95    2
    94    64    65    1
    95    99   100    1
    96    71    72    1
    97    71    65   am
    98    72    73    1
    99    73    79   am
   100    59    56    1
   101    65    66    2
   102    56    57    1
   103    56    55    1
   104   115   116    1
   105   115   118    1
   106    81    80    1
   107    81    82    2
   108    57    58    2
   109    79    80    1
   110   116   117    2
   111    80    83    1
   112   118   119    1
   113   119   120    1
   114    83    84    1
   115    85    84    1
   116   121   120    1
   117    84    86    1
