@<TRIPOS>MOLECULE
tmp/1zneA00.pdb
 120 112 0 0 0
SMALL
GASTEIGER

@<TRIPOS>ATOM
      1  N         47.5900   16.9340   47.6550 N.3    24  LEU24      -0.1245
      2  CA        47.9170   16.8680   46.2320 C.3    24  LEU24       0.1561
      3  C         47.5420   15.4640   45.7720 C.2    24  LEU24       0.2260
      4  O         47.5780   14.5030   46.5700 O.2    24  LEU24      -0.2867
      5  CB        49.4150   17.1110   45.9780 C.3    24  LEU24       0.0270
      6  CG        49.8590   18.5620   46.2320 C.3    24  LEU24       0.0019
      7  CD1       51.3750   18.6650   45.9700 C.3    24  LEU24       0.0001
      8  CD2       49.0720   19.5350   45.3270 C.3    24  LEU24       0.0001
      9  N         56.3540   18.3620   41.3290 N.3    38  PHE38      -0.1241
     10  CA        55.0300   18.9260   41.5410 C.3    38  PHE38       0.1605
     11  C         54.5390   18.9120   42.9790 C.2    38  PHE38       0.2264
     12  O         53.3580   19.1730   43.2490 O.2    38  PHE38      -0.2867
     13  CB        54.0210   18.2780   40.6010 C.3    38  PHE38       0.0534
     14  CG        54.2860   18.6050   39.1530 C.ar   38  PHE38      -0.0203
     15  CD1       55.3550   18.0150   38.4790 C.ar   38  PHE38      -0.0042
     16  CD2       53.5190   19.5410   38.4900 C.ar   38  PHE38      -0.0042
     17  CE1       55.6540   18.3550   37.1820 C.ar   38  PHE38      -0.0003
     18  CE2       53.8030   19.8920   37.1830 C.ar   38  PHE38      -0.0003
     19  CZ        54.8770   19.2970   36.5260 C.ar   38  PHE38      -0.0000
     20  N         54.5000   21.0030   45.2450 N.3    40  LEU40      -0.1245
     21  CA        54.6650   22.4300   45.4890 C.3    40  LEU40       0.1561
     22  C         53.7150   22.9820   46.5600 C.2    40  LEU40       0.2260
     23  O         52.5110   22.7540   46.5100 O.2    40  LEU40      -0.2867
     24  CB        54.4560   23.1900   44.1740 C.3    40  LEU40       0.0270
     25  CG        55.3990   22.8370   43.0070 C.3    40  LEU40       0.0019
     26  CD1       55.0620   23.6780   41.7860 C.3    40  LEU40       0.0001
     27  CD2       56.8400   23.0700   43.4190 C.3    40  LEU40       0.0001
     28  N         51.6780   32.8920   40.7420 N.3    54  LEU54      -0.1245
     29  CA        51.6380   31.9020   41.8130 C.3    54  LEU54       0.1561
     30  C         52.9530   31.8510   42.5410 C.2    54  LEU54       0.2260
     31  O         54.0030   31.7730   41.9090 O.2    54  LEU54      -0.2867
     32  CB        51.3240   30.5260   41.2330 C.3    54  LEU54       0.0270
     33  CG        50.1000   30.4650   40.3090 C.3    54  LEU54       0.0019
     34  CD1       50.0260   29.1060   39.6140 C.3    54  LEU54       0.0001
     35  CD2       48.8550   30.7190   41.1190 C.3    54  LEU54       0.0001
     36  N         55.0850   29.7440   45.3240 N.3    56  PHE56      -0.1241
     37  CA        55.2060   28.4600   45.9900 C.3    56  PHE56       0.1605
     38  C         56.5580   28.3380   46.6720 C.2    56  PHE56       0.2264
     39  O         57.4390   29.1920   46.5370 O.2    56  PHE56      -0.2867
     40  CB        55.2360   27.2760   44.9940 C.3    56  PHE56       0.0534
     41  CG        54.0300   27.1330   44.0940 C.ar   56  PHE56      -0.0203
     42  CD1       54.0070   27.7280   42.8330 C.ar   56  PHE56      -0.0042
     43  CD2       52.9630   26.3140   44.4630 C.ar   56  PHE56      -0.0042
     44  CE1       52.9390   27.5000   41.9590 C.ar   56  PHE56      -0.0003
     45  CE2       51.8910   26.0860   43.5830 C.ar   56  PHE56      -0.0003
     46  CZ        51.8830   26.6760   42.3370 C.ar   56  PHE56      -0.0000
     47  N         55.6730   31.6790   39.5910 N.3    69  MET69      -0.1245
     48  CA        55.2740   31.2850   38.2470 C.3    69  MET69       0.1570
     49  C         54.1780   32.1870   37.8150 C.2    69  MET69       0.2261
     50  O         53.3810   32.6160   38.6390 O.2    69  MET69      -0.2867
     51  CB        54.6470   29.9000   38.2500 C.3    69  MET69       0.0387
     52  CG        55.5510   28.7690   38.1710 C.3    69  MET69       0.0595
     53  SD        54.4680   27.3520   38.3270 S.3    69  MET69      -0.1393
     54  CE        55.3890   26.5210   39.4670 C.3    69  MET69       0.0692
     55  N         50.8640   27.4430   32.0050 N.3    82  VAL82      -0.1245
     56  CA        52.1320   27.8600   32.5590 C.3    82  VAL82       0.1561
     57  C         53.1920   26.8450   32.2160 C.2    82  VAL82       0.2260
     58  O         52.9590   25.6340   32.2400 O.2    82  VAL82      -0.2867
     59  CB        52.0870   28.0580   34.1100 C.3    82  VAL82       0.0252
     60  CG1       51.7230   26.7630   34.8000 C.3    82  VAL82       0.0019
     61  CG2       53.4630   28.5190   34.5960 C.3    82  VAL82       0.0019
     62  N         56.3480   24.8280   33.0750 N.3    84  TYR84      -0.1241
     63  CA        57.0200   24.3670   34.2790 C.3    84  TYR84       0.1605
     64  C         57.1480   22.8470   34.1800 C.2    84  TYR84       0.2264
     65  O         56.1410   22.1280   34.1950 O.2    84  TYR84      -0.2867
     66  CB        56.2090   24.7560   35.5260 C.3    84  TYR84       0.0534
     67  CG        56.8300   24.1810   36.7790 C.ar   84  TYR84      -0.0201
     68  CD1       58.0000   24.7370   37.3320 C.ar   84  TYR84      -0.0009
     69  CD2       56.3160   23.0130   37.3510 C.ar   84  TYR84      -0.0009
     70  CE1       58.6370   24.1330   38.4190 C.ar   84  TYR84       0.0417
     71  CE2       56.9260   22.4140   38.4190 C.ar   84  TYR84       0.0417
     72  CZ        58.0830   22.9640   38.9580 C.ar   84  TYR84       0.1957
     73  OH        58.6530   22.3490   40.0460 O.3    84  TYR84      -0.2866
     74  N         51.8140   23.0640   31.0290 N.3    88  ASN88      -0.1240
     75  CA        50.6670   22.7990   31.8950 C.3    88  ASN88       0.1653
     76  C         49.4750   23.7180   31.6210 C.2    88  ASN88       0.2266
     77  O         49.6550   24.9180   31.3210 O.2    88  ASN88      -0.2867
     78  CB        51.0080   23.0780   33.3790 C.3    88  ASN88       0.1155
     79  CG        52.2940   22.4410   33.8370 C.2    88  ASN88       0.2627
     80  OD1       52.3050   21.2830   34.2320 O.2    88  ASN88      -0.2716
     81  ND2       53.4020   23.2040   33.7880 N.am   88  ASN88      -0.0877
     82  N         45.4980   24.4870   33.5210 N.3    90  PHE90      -0.1241
     83  CA        44.6960   24.1040   34.6650 C.3    90  PHE90       0.1605
     84  C         43.4350   24.9590   34.7630 C.2    90  PHE90       0.2264
     85  O         43.3580   26.0470   34.1760 O.2    90  PHE90      -0.2867
     86  CB        45.5100   24.1770   36.0030 C.3    90  PHE90       0.0534
     87  CG        45.9230   25.5800   36.4150 C.ar   90  PHE90      -0.0203
     88  CD1       47.2090   26.0570   36.1480 C.ar   90  PHE90      -0.0042
     89  CD2       45.0310   26.4200   37.0760 C.ar   90  PHE90      -0.0042
     90  CE1       47.5970   27.3410   36.5330 C.ar   90  PHE90      -0.0003
     91  CE2       45.4120   27.7170   37.4670 C.ar   90  PHE90      -0.0003
     92  CZ        46.7050   28.1690   37.1900 C.ar   90  PHE90      -0.0000
     93  N         44.8570   20.0510   36.9660 N.3   105  LEU105     -0.1245
     94  CA        45.9140   20.4030   36.0290 C.3   105  LEU105      0.1561
     95  C         46.3400   19.2560   35.1220 C.2   105  LEU105      0.2260
     96  O         46.3660   18.0880   35.5400 O.2   105  LEU105     -0.2867
     97  CB        47.1540   20.9210   36.8280 C.3   105  LEU105      0.0270
     98  CG        48.4730   21.2610   36.0770 C.3   105  LEU105      0.0019
     99  CD1       49.2370   22.3300   36.9020 C.3   105  LEU105      0.0001
    100  CD2       49.3860   20.0220   35.8590 C.3   105  LEU105      0.0001
    101  N         47.0860   16.3100   37.6330 N.3   116  LEU116     -0.1245
    102  CA        47.4710   16.6990   38.9850 C.3   116  LEU116      0.1561
    103  C         46.2410   17.4080   39.5160 C.2   116  LEU116      0.2260
    104  O         45.6430   18.2310   38.8050 O.2   116  LEU116     -0.2867
    105  CB        48.6510   17.6800   38.9420 C.3   116  LEU116      0.0270
    106  CG        49.2360   18.5420   40.0850 C.3   116  LEU116      0.0019
    107  CD1       48.1410   19.2920   40.8160 C.3   116  LEU116      0.0001
    108  CD2       50.0450   17.6970   41.0340 C.3   116  LEU116      0.0001
    109  N         43.7060   23.3950   48.0180 N.3   120  TYR120     -0.1241
    110  CA        44.3540   24.5110   48.6990 C.3   120  TYR120      0.1605
    111  C         43.3770   25.1180   49.7130 C.2   120  TYR120      0.2264
    112  O         42.1610   25.1380   49.4940 O.2   120  TYR120     -0.2867
    113  CB        44.7600   25.5500   47.6470 C.3   120  TYR120      0.0534
    114  CG        45.6400   24.9310   46.6010 C.ar  120  TYR120     -0.0201
    115  CD1       47.0090   24.7610   46.8300 C.ar  120  TYR120     -0.0009
    116  CD2       45.0940   24.4180   45.4160 C.ar  120  TYR120     -0.0009
    117  CE1       47.8080   24.0890   45.9130 C.ar  120  TYR120      0.0417
    118  CE2       45.8980   23.7450   44.4830 C.ar  120  TYR120      0.0417
    119  CZ        47.2520   23.5810   44.7380 C.ar  120  TYR120      0.1957
    120  OH        48.0780   22.9110   43.8240 O.3   120  TYR120     -0.2866
@<TRIPOS>BOND
     1    74    75    1
     2    77    76    2
     3    76    75    1
     4    75    78    1
     5    55    56    1
     6    57    58    2
     7    57    56    1
     8    56    59    1
     9    62    63    1
    10    78    79    1
    11    82    83    1
    12    81    79   am
    13    79    80    2
    14    59    61    1
    15    59    60    1
    16    85    84    2
    17    64    65    2
    18    64    63    1
    19    63    66    1
    20    83    84    1
    21    83    86    1
    22    95    96    2
    23    95    94    1
    24    66    67    1
    25   100    98    1
    26    86    87    1
    27    94    97    1
    28    94    93    1
    29    98    97    1
    30    98    99    1
    31    88    87   ar
    32    88    90   ar
    33    87    89   ar
    34    19    17   ar
    35    19    18   ar
    36    90    92   ar
    37    67    68   ar
    38    67    69   ar
    39    89    91   ar
    40    17    15   ar
    41    18    16   ar
    42    92    91   ar
    43    68    70   ar
    44    69    71   ar
    45   101   102    1
    46    49    48    1
    47    49    50    2
    48    52    51    1
    49    52    53    1
    50    48    51    1
    51    48    47    1
    52    53    54    1
    53    70    72   ar
    54    71    72   ar
    55    15    14   ar
    56    16    14   ar
    57   104   103    2
    58   105   102    1
    59   105   106    1
    60    72    73    1
    61   102   103    1
    62    14    13    1
    63    34    33    1
    64   106   107    1
    65   106   108    1
    66    33    35    1
    67    33    32    1
    68    13    10    1
    69    28    29    1
    70    32    29    1
    71     9    10    1
    72    10    11    1
    73    26    25    1
    74    29    30    1
    75    31    30    2
    76    44    46   ar
    77    44    42   ar
    78    46    45   ar
    79    42    41   ar
    80    11    12    2
    81    25    27    1
    82    25    24    1
    83    45    43   ar
    84   120   119    1
    85    41    43   ar
    86    41    40    1
    87    24    21    1
    88   118   119   ar
    89   118   116   ar
    90   119   117   ar
    91    40    37    1
    92    20    21    1
    93    36    37    1
    94     8     6    1
    95   116   114   ar
    96    21    22    1
    97     3     2    1
    98     3     4    2
    99   117   115   ar
   100     7     6    1
   101     5     6    1
   102     5     2    1
   103    37    38    1
   104     2     1    1
   105    23    22    2
   106    39    38    2
   107   114   115   ar
   108   114   113    1
   109   113   110    1
   110   109   110    1
   111   110   111    1
   112   112   111    2
