@<TRIPOS>MOLECULE
tmp/1zngA00.pdb
 123 113 0 0 0
SMALL
GASTEIGER

@<TRIPOS>ATOM
      1  N         47.9640   17.0860   47.7110 N.3    24  LEU24      -0.1245
      2  CA        48.2910   16.9800   46.2860 C.3    24  LEU24       0.1561
      3  C         47.9510   15.5730   45.8230 C.2    24  LEU24       0.2260
      4  O         48.0050   14.6170   46.5830 O.2    24  LEU24      -0.2867
      5  CB        49.7680   17.2550   46.0090 C.3    24  LEU24       0.0270
      6  CG        50.1750   18.7120   46.2660 C.3    24  LEU24       0.0019
      7  CD1       51.6590   18.8390   45.9760 C.3    24  LEU24       0.0001
      8  CD2       49.3800   19.6820   45.3980 C.3    24  LEU24       0.0001
      9  N         52.1540   26.1120   47.9430 N.3    42  LEU42      -0.1245
     10  CA        51.6690   27.4270   47.5560 C.3    42  LEU42       0.1561
     11  C         51.6560   28.3670   48.7650 C.2    42  LEU42       0.2260
     12  O         51.4110   27.9530   49.9110 O.2    42  LEU42      -0.2867
     13  CB        50.2560   27.3040   46.9730 C.3    42  LEU42       0.0270
     14  CG        49.6160   28.5680   46.3850 C.3    42  LEU42       0.0019
     15  CD1       50.4640   29.0370   45.1880 C.3    42  LEU42       0.0001
     16  CD2       48.1750   28.2780   45.9250 C.3    42  LEU42       0.0001
     17  N         48.4700   33.7790   45.8160 N.3    45  ILE45      -0.1245
     18  CA        48.0810   33.9470   44.4270 C.3    45  ILE45       0.1561
     19  C         47.8610   35.4430   44.2480 C.2    45  ILE45       0.2260
     20  O         47.1470   36.0590   45.0320 O.2    45  ILE45      -0.2867
     21  CB        46.7510   33.2340   44.1030 C.3    45  ILE45       0.0252
     22  CG1       46.9280   31.7090   44.2370 C.3    45  ILE45       0.0019
     23  CG2       46.3280   33.5700   42.6340 C.3    45  ILE45       0.0019
     24  CD1       45.6560   30.9170   43.9350 C.3    45  ILE45       0.0001
     25  N         47.9800   35.1410   36.5990 N.3    52  LEU52      -0.1245
     26  CA        48.0230   34.8990   38.0370 C.3    52  LEU52       0.1561
     27  C         49.4960   34.7470   38.3730 C.2    52  LEU52       0.2260
     28  O         50.2220   34.0590   37.6530 O.2    52  LEU52      -0.2867
     29  CB        47.3050   33.5890   38.4250 C.3    52  LEU52       0.0270
     30  CG        45.8350   33.3950   38.0630 C.3    52  LEU52       0.0019
     31  CD1       45.4210   31.9510   38.4030 C.3    52  LEU52       0.0001
     32  CD2       44.9540   34.3960   38.8240 C.3    52  LEU52       0.0001
     33  N         51.9330   33.1430   40.9120 N.3    54  LEU54      -0.1245
     34  CA        51.9080   32.1180   41.9520 C.3    54  LEU54       0.1561
     35  C         53.2140   32.0690   42.7150 C.2    54  LEU54       0.2260
     36  O         54.2820   31.9530   42.1140 O.2    54  LEU54      -0.2867
     37  CB        51.6410   30.7620   41.2930 C.3    54  LEU54       0.0270
     38  CG        50.4640   30.6990   40.3100 C.3    54  LEU54       0.0019
     39  CD1       50.4470   29.3150   39.6550 C.3    54  LEU54       0.0001
     40  CD2       49.1480   30.9910   41.0450 C.3    54  LEU54       0.0001
     41  N         55.3920   30.0180   45.4290 N.3    56  PHE56      -0.1241
     42  CA        55.5260   28.7160   46.0670 C.3    56  PHE56       0.1605
     43  C         56.8680   28.5970   46.7450 C.2    56  PHE56       0.2264
     44  O         57.7260   29.4730   46.6440 O.2    56  PHE56      -0.2867
     45  CB        55.5780   27.5590   45.0440 C.3    56  PHE56       0.0534
     46  CG        54.3740   27.4130   44.1800 C.ar   56  PHE56      -0.0203
     47  CD1       54.3310   28.0150   42.9350 C.ar   56  PHE56      -0.0042
     48  CD2       53.3350   26.5600   44.5490 C.ar   56  PHE56      -0.0042
     49  CE1       53.2710   27.7620   42.0510 C.ar   56  PHE56      -0.0003
     50  CE2       52.2630   26.3010   43.6670 C.ar   56  PHE56      -0.0003
     51  CZ        52.2420   26.9050   42.4180 C.ar   56  PHE56      -0.0000
     52  N         45.8630   24.5890   33.5720 N.3    90  PHE90      -0.1241
     53  CA        45.0480   24.2090   34.7190 C.3    90  PHE90       0.1605
     54  C         43.7690   25.0170   34.8110 C.2    90  PHE90       0.2264
     55  O         43.6500   26.0770   34.1940 O.2    90  PHE90      -0.2867
     56  CB        45.8610   24.3010   36.0450 C.3    90  PHE90       0.0534
     57  CG        46.2590   25.7050   36.4430 C.ar   90  PHE90      -0.0203
     58  CD1       47.5230   26.2050   36.1310 C.ar   90  PHE90      -0.0042
     59  CD2       45.3680   26.5240   37.1270 C.ar   90  PHE90      -0.0042
     60  CE1       47.8970   27.5200   36.5100 C.ar   90  PHE90      -0.0003
     61  CE2       45.7320   27.8370   37.5040 C.ar   90  PHE90      -0.0003
     62  CZ        47.0090   28.3270   37.1920 C.ar   90  PHE90      -0.0000
     63  N         40.2320   25.5900   37.8130 N.3    92  ILE92      -0.1245
     64  CA        39.8690   25.4760   39.2320 C.3    92  ILE92       0.1561
     65  C         38.4290   24.9350   39.2080 C.2    92  ILE92       0.2260
     66  O         37.4520   25.7020   39.1820 O.2    92  ILE92      -0.2867
     67  CB        39.9130   26.8760   39.9020 C.3    92  ILE92       0.0252
     68  CG1       41.3660   27.3980   39.8900 C.3    92  ILE92       0.0019
     69  CG2       39.3560   26.7940   41.3290 C.3    92  ILE92       0.0019
     70  CD1       41.4920   28.8530   40.3490 C.3    92  ILE92       0.0001
     71  N         40.3470   25.7980   47.6900 N.3   101  LEU101     -0.1245
     72  CA        40.4790   25.9590   46.2560 C.3   101  LEU101      0.1561
     73  C         40.9440   24.6000   45.7340 C.2   101  LEU101      0.2260
     74  O         41.9280   24.0490   46.2260 O.2   101  LEU101     -0.2867
     75  CB        41.5030   27.0530   45.9290 C.3   101  LEU101      0.0270
     76  CG        41.5890   27.4610   44.4400 C.3   101  LEU101      0.0019
     77  CD1       42.1260   28.8670   44.3660 C.3   101  LEU101      0.0001
     78  CD2       42.5330   26.5200   43.6820 C.3   101  LEU101      0.0001
     79  N         42.2030   22.6080   42.4000 N.3   103  ALA103     -0.1245
     80  CA        42.6980   22.8230   41.0430 C.3   103  ALA103      0.1562
     81  C         42.9760   21.5240   40.3350 C.2   103  ALA103      0.2260
     82  O         43.2850   20.5200   40.9720 O.2   103  ALA103     -0.2867
     83  CB        43.9880   23.6700   41.0670 C.3   103  ALA103      0.0290
     84  N         45.2090   20.1380   36.9680 N.3   105  LEU105     -0.1245
     85  CA        46.2770   20.4970   36.0440 C.3   105  LEU105      0.1561
     86  C         46.6900   19.3270   35.1640 C.2   105  LEU105      0.2260
     87  O         46.6810   18.1680   35.5810 O.2   105  LEU105     -0.2867
     88  CB        47.5010   20.9890   36.8490 C.3   105  LEU105      0.0270
     89  CG        48.7950   21.3430   36.0880 C.3   105  LEU105      0.0019
     90  CD1       49.5750   22.4080   36.8940 C.3   105  LEU105      0.0001
     91  CD2       49.6500   20.1180   35.9070 C.3   105  LEU105      0.0001
     92  N         47.4970   16.3550   37.6480 N.3   116  LEU116     -0.1231
     93  CA        47.8200   16.7390   39.0230 C.3   116  LEU116      0.1693
     94  C         46.5810   17.4520   39.5670 C.2   116  LEU116      0.2592
     95  O         45.9360   18.2310   38.8560 O.2   116  LEU116     -0.2718
     96  CB        49.0000   17.7110   39.0430 C.3   116  LEU116      0.0284
     97  CG        49.3280   18.3570   40.4010 C.3   116  LEU116      0.0019
     98  CD1       50.0510   17.3860   41.2740 C.3   116  LEU116      0.0001
     99  CD2       50.2050   19.5800   40.1620 C.3   116  LEU116      0.0001
    100  N         46.2180   17.1680   40.8130 N.am  117  MET117     -0.1965
    101  CA        45.1060   17.8740   41.4250 C.3   117  MET117      0.1736
    102  C         45.6240   18.4000   42.7510 C.2   117  MET117      0.2617
    103  O         46.4440   17.7620   43.4050 O.2   117  MET117     -0.2715
    104  CB        43.9080   16.9370   41.6270 C.3   117  MET117      0.0427
    105  CG        43.5250   16.3110   40.2860 C.3   117  MET117      0.0599
    106  SD        41.8470   15.7730   40.2810 S.3   117  MET117     -0.1393
    107  CE        41.1920   17.4870   40.4160 C.3   117  MET117      0.0692
    108  N         45.1820   19.5970   43.1160 N.am  118  GLY118     -0.1955
    109  CA        45.6330   20.1530   44.3680 C.3   118  GLY118      0.1869
    110  C         44.4920   20.7370   45.1740 C.2   118  GLY118      0.2309
    111  O         43.5250   21.2810   44.6220 O.2   118  GLY118     -0.2863
    112  N         43.9380   23.4540   48.1310 N.3   120  TYR120     -0.1241
    113  CA        44.5980   24.5740   48.8070 C.3   120  TYR120      0.1605
    114  C         43.6410   25.1910   49.8170 C.2   120  TYR120      0.2264
    115  O         42.4260   25.1970   49.6160 O.2   120  TYR120     -0.2867
    116  CB        45.0080   25.5970   47.7480 C.3   120  TYR120      0.0534
    117  CG        45.9240   24.9930   46.7140 C.ar  120  TYR120     -0.0201
    118  CD1       47.2820   24.8750   46.9560 C.ar  120  TYR120     -0.0009
    119  CD2       45.4080   24.4570   45.5320 C.ar  120  TYR120     -0.0009
    120  CE1       48.1290   24.2320   46.0520 C.ar  120  TYR120      0.0417
    121  CE2       46.2350   23.8010   44.6200 C.ar  120  TYR120      0.0417
    122  CZ        47.5970   23.6950   44.8950 C.ar  120  TYR120      0.1957
    123  OH        48.4180   23.0130   44.0010 O.3   120  TYR120     -0.2866
@<TRIPOS>BOND
     1    52    53    1
     2    55    54    2
     3    53    54    1
     4    53    56    1
     5    86    87    2
     6    86    85    1
     7    91    89    1
     8    85    88    1
     9    85    84    1
    10    56    57    1
    11    89    88    1
    12    89    90    1
    13    58    57   ar
    14    58    60   ar
    15    57    59   ar
    16    60    62   ar
    17    25    26    1
    18    59    61   ar
    19    62    61   ar
    20    92    93    1
    21    28    27    2
    22    63    64    1
    23    26    27    1
    24    26    29    1
    25    30    31    1
    26    30    29    1
    27    30    32    1
    28    95    94    2
    29    93    96    1
    30    93    94    1
    31    96    97    1
    32    66    65    2
    33    65    64    1
    34    64    67    1
    35    94   100   am
    36    39    38    1
    37    68    67    1
    38    68    70    1
    39    67    69    1
    40    99    97    1
    41   106   105    1
    42   106   107    1
    43   105   104    1
    44    38    40    1
    45    38    37    1
    46    81    82    2
    47    81    80    1
    48    97    98    1
    49   100   101    1
    50    33    34    1
    51    80    83    1
    52    80    79    1
    53    37    34    1
    54   101   104    1
    55   101   102    1
    56    34    35    1
    57    49    51   ar
    58    49    47   ar
    59    36    35    2
    60    51    50   ar
    61    23    21    1
    62   102   108   am
    63   102   103    2
    64    47    46   ar
    65   108   109    1
    66    50    48   ar
    67    78    76    1
    68    24    22    1
    69   123   122    1
    70    21    22    1
    71    21    18    1
    72    46    48   ar
    73    46    45    1
    74    19    18    1
    75    19    20    2
    76    77    76    1
    77   109   110    1
    78    18    17    1
    79    76    75    1
    80   121   122   ar
    81   121   119   ar
    82   111   110    2
    83   122   120   ar
    84    45    42    1
    85    15    14    1
    86     8     6    1
    87    41    42    1
    88   119   117   ar
    89    73    74    2
    90    73    72    1
    91     3     2    1
    92     3     4    2
    93    16    14    1
    94    75    72    1
    95     7     6    1
    96     5     6    1
    97     5     2    1
    98   120   118   ar
    99    42    43    1
   100    72    71    1
   101     2     1    1
   102    14    13    1
   103    44    43    2
   104   117   118   ar
   105   117   116    1
   106    13    10    1
   107    10     9    1
   108    10    11    1
   109   116   113    1
   110   112   113    1
   111    11    12    2
   112   113   114    1
   113   115   114    2
