@<TRIPOS>MOLECULE
tmp/1znkA00.pdb
 150 138 0 0 0
SMALL
GASTEIGER

@<TRIPOS>ATOM
      1  N         47.9520   16.9320   47.7160 N.3    24  LEU24      -0.1245
      2  CA        48.2770   16.8700   46.2810 C.3    24  LEU24       0.1561
      3  C         47.9450   15.4810   45.8260 C.2    24  LEU24       0.2260
      4  O         48.0420   14.5340   46.5910 O.2    24  LEU24      -0.2867
      5  CB        49.7640   17.1440   45.9770 C.3    24  LEU24       0.0270
      6  CG        50.1810   18.6020   46.2080 C.3    24  LEU24       0.0019
      7  CD1       51.6760   18.6900   45.8860 C.3    24  LEU24       0.0001
      8  CD2       49.4200   19.5870   45.3300 C.3    24  LEU24       0.0001
      9  N         56.6580   18.4110   41.3300 N.3    38  PHE38      -0.1241
     10  CA        55.3320   18.9950   41.5440 C.3    38  PHE38       0.1605
     11  C         54.8370   19.0200   42.9890 C.2    38  PHE38       0.2264
     12  O         53.6720   19.3040   43.2530 O.2    38  PHE38      -0.2867
     13  CB        54.3150   18.3140   40.6210 C.3    38  PHE38       0.0534
     14  CG        54.5650   18.6120   39.1590 C.ar   38  PHE38      -0.0203
     15  CD1       55.6850   18.0590   38.5010 C.ar   38  PHE38      -0.0042
     16  CD2       53.7820   19.5330   38.4810 C.ar   38  PHE38      -0.0042
     17  CE1       56.0100   18.4350   37.2070 C.ar   38  PHE38      -0.0003
     18  CE2       54.1000   19.9190   37.1810 C.ar   38  PHE38      -0.0003
     19  CZ        55.2290   19.3630   36.5420 C.ar   38  PHE38      -0.0000
     20  N         54.7130   21.0640   45.2550 N.3    40  LEU40      -0.1245
     21  CA        54.8450   22.4930   45.4540 C.3    40  LEU40       0.1561
     22  C         53.9250   22.9970   46.5580 C.2    40  LEU40       0.2260
     23  O         52.7190   22.6710   46.6120 O.2    40  LEU40      -0.2867
     24  CB        54.5680   23.2500   44.1440 C.3    40  LEU40       0.0270
     25  CG        55.4230   22.8900   42.9140 C.3    40  LEU40       0.0019
     26  CD1       55.1460   23.8720   41.7790 C.3    40  LEU40       0.0001
     27  CD2       56.8960   22.9360   43.2940 C.3    40  LEU40       0.0001
     28  N         52.0660   25.9750   47.8710 N.3    42  LEU42      -0.1245
     29  CA        51.5660   27.2850   47.4880 C.3    42  LEU42       0.1561
     30  C         51.5540   28.2140   48.6930 C.2    42  LEU42       0.2260
     31  O         51.3020   27.7930   49.8230 O.2    42  LEU42      -0.2867
     32  CB        50.1550   27.1510   46.8830 C.3    42  LEU42       0.0270
     33  CG        49.5290   28.4300   46.3030 C.3    42  LEU42       0.0019
     34  CD1       50.3490   28.9280   45.0990 C.3    42  LEU42       0.0001
     35  CD2       48.0860   28.1200   45.8630 C.3    42  LEU42       0.0001
     36  N         48.4820   33.7180   45.7890 N.3    45  ILE45      -0.1245
     37  CA        48.0590   33.9050   44.4250 C.3    45  ILE45       0.1561
     38  C         47.8210   35.3990   44.2560 C.2    45  ILE45       0.2260
     39  O         47.1070   36.0100   45.0550 O.2    45  ILE45      -0.2867
     40  CB        46.7260   33.1990   44.1360 C.3    45  ILE45       0.0252
     41  CG1       46.9140   31.6830   44.3030 C.3    45  ILE45       0.0019
     42  CG2       46.2360   33.6080   42.7070 C.3    45  ILE45       0.0019
     43  CD1       45.6290   30.8070   44.0250 C.3    45  ILE45       0.0001
     44  N         47.7950   34.9710   36.6580 N.3    52  LEU52      -0.1245
     45  CA        47.8290   34.7370   38.0930 C.3    52  LEU52       0.1561
     46  C         49.3090   34.6170   38.4250 C.2    52  LEU52       0.2260
     47  O         50.0210   33.8790   37.7550 O.2    52  LEU52      -0.2867
     48  CB        47.1390   33.4140   38.4610 C.3    52  LEU52       0.0270
     49  CG        45.6580   33.2630   38.1150 C.3    52  LEU52       0.0019
     50  CD1       45.1960   31.8380   38.4500 C.3    52  LEU52       0.0001
     51  CD2       44.8420   34.2980   38.8770 C.3    52  LEU52       0.0001
     52  N         51.7820   33.0580   40.8440 N.3    54  LEU54      -0.1245
     53  CA        51.7690   32.0470   41.8830 C.3    54  LEU54       0.1561
     54  C         53.0850   31.9680   42.6470 C.2    54  LEU54       0.2260
     55  O         54.1490   31.8040   42.0360 O.2    54  LEU54      -0.2867
     56  CB        51.4800   30.6900   41.2350 C.3    54  LEU54       0.0270
     57  CG        50.2750   30.5970   40.2970 C.3    54  LEU54       0.0019
     58  CD1       50.2310   29.1690   39.7210 C.3    54  LEU54       0.0001
     59  CD2       48.9780   30.9100   41.0690 C.3    54  LEU54       0.0001
     60  N         55.2840   29.9130   45.4340 N.3    56  PHE56      -0.1241
     61  CA        55.4100   28.6150   46.0950 C.3    56  PHE56       0.1605
     62  C         56.7530   28.4800   46.7840 C.2    56  PHE56       0.2264
     63  O         57.6150   29.3390   46.6710 O.2    56  PHE56      -0.2867
     64  CB        55.4600   27.4500   45.0840 C.3    56  PHE56       0.0534
     65  CG        54.2600   27.3080   44.1750 C.ar   56  PHE56      -0.0203
     66  CD1       54.2230   27.9360   42.9420 C.ar   56  PHE56      -0.0042
     67  CD2       53.2200   26.4340   44.5150 C.ar   56  PHE56      -0.0042
     68  CE1       53.1710   27.6920   42.0410 C.ar   56  PHE56      -0.0003
     69  CE2       52.1630   26.1880   43.6200 C.ar   56  PHE56      -0.0003
     70  CZ        52.1450   26.8130   42.3830 C.ar   56  PHE56      -0.0000
     71  N         55.8440   31.6670   39.5840 N.3    69  MET69      -0.1245
     72  CA        55.4180   31.3150   38.2370 C.3    69  MET69       0.1570
     73  C         54.3280   32.2660   37.8600 C.2    69  MET69       0.2261
     74  O         53.5860   32.7210   38.7300 O.2    69  MET69      -0.2867
     75  CB        54.7320   29.9540   38.2400 C.3    69  MET69       0.0387
     76  CG        55.5360   28.7910   37.9370 C.3    69  MET69       0.0595
     77  SD        54.3670   27.4780   38.2870 S.3    69  MET69      -0.1393
     78  CE        55.5010   26.4650   39.2530 C.3    69  MET69       0.0692
     79  N         56.4610   24.9990   33.2940 N.3    84  TYR84      -0.1241
     80  CA        57.1540   24.5440   34.4880 C.3    84  TYR84       0.1605
     81  C         57.3120   23.0410   34.3070 C.2    84  TYR84       0.2264
     82  O         56.3060   22.2980   34.2700 O.2    84  TYR84      -0.2867
     83  CB        56.3550   24.8240   35.7640 C.3    84  TYR84       0.0534
     84  CG        57.0200   24.2150   36.9850 C.ar   84  TYR84      -0.0201
     85  CD1       58.1800   24.7740   37.5290 C.ar   84  TYR84      -0.0009
     86  CD2       56.5460   23.0190   37.5360 C.ar   84  TYR84      -0.0009
     87  CE1       58.8490   24.1580   38.5840 C.ar   84  TYR84       0.0417
     88  CE2       57.1970   22.3970   38.5820 C.ar   84  TYR84       0.0417
     89  CZ        58.3520   22.9690   39.1060 C.ar   84  TYR84       0.1957
     90  OH        58.9970   22.3540   40.1470 O.3    84  TYR84      -0.2866
     91  N         45.7570   24.4600   33.5780 N.3    90  PHE90      -0.1241
     92  CA        44.9730   24.1160   34.7460 C.3    90  PHE90       0.1605
     93  C         43.6790   24.9160   34.8440 C.2    90  PHE90       0.2264
     94  O         43.5380   25.9890   34.2300 O.2    90  PHE90      -0.2867
     95  CB        45.7850   24.2440   36.0640 C.3    90  PHE90       0.0534
     96  CG        46.1560   25.6670   36.4440 C.ar   90  PHE90      -0.0203
     97  CD1       47.4270   26.1490   36.1850 C.ar   90  PHE90      -0.0042
     98  CD2       45.2420   26.4920   37.0970 C.ar   90  PHE90      -0.0042
     99  CE1       47.7990   27.4260   36.5690 C.ar   90  PHE90      -0.0003
    100  CE2       45.6080   27.8100   37.4930 C.ar   90  PHE90      -0.0003
    101  CZ        46.8850   28.2660   37.2280 C.ar   90  PHE90      -0.0000
    102  N         40.1850   25.4920   37.8460 N.3    92  ILE92      -0.1245
    103  CA        39.8150   25.3610   39.2590 C.3    92  ILE92       0.1561
    104  C         38.3980   24.7700   39.2480 C.2    92  ILE92       0.2260
    105  O         37.4080   25.4940   39.1830 O.2    92  ILE92      -0.2867
    106  CB        39.8410   26.7480   39.9140 C.3    92  ILE92       0.0252
    107  CG1       41.2820   27.2910   39.8810 C.3    92  ILE92       0.0019
    108  CG2       39.3790   26.6770   41.3640 C.3    92  ILE92       0.0019
    109  CD1       41.3900   28.7730   40.2420 C.3    92  ILE92       0.0001
    110  N         40.2570   25.6460   47.7420 N.3   101  LEU101     -0.1245
    111  CA        40.3870   25.7970   46.3030 C.3   101  LEU101      0.1561
    112  C         40.9170   24.4540   45.7780 C.2   101  LEU101      0.2260
    113  O         41.9280   23.9190   46.2770 O.2   101  LEU101     -0.2867
    114  CB        41.3270   26.9530   45.9740 C.3   101  LEU101      0.0270
    115  CG        41.4850   27.3150   44.4810 C.3   101  LEU101      0.0019
    116  CD1       41.9700   28.7490   44.3690 C.3   101  LEU101      0.0001
    117  CD2       42.4780   26.3460   43.8080 C.3   101  LEU101      0.0001
    118  N         42.2010   22.5170   42.4070 N.3   103  ALA103     -0.1245
    119  CA        42.7090   22.7290   41.0630 C.3   103  ALA103      0.1562
    120  C         42.9680   21.4200   40.3670 C.2   103  ALA103      0.2260
    121  O         43.2690   20.4260   41.0220 O.2   103  ALA103     -0.2867
    122  CB        44.0550   23.5380   41.1030 C.3   103  ALA103      0.0290
    123  N         45.1960   20.0340   37.0270 N.3   105  LEU105     -0.1245
    124  CA        46.2370   20.4330   36.0970 C.3   105  LEU105      0.1561
    125  C         46.6520   19.2920   35.1930 C.2   105  LEU105      0.2260
    126  O         46.6490   18.1500   35.6220 O.2   105  LEU105     -0.2867
    127  CB        47.4610   20.9140   36.9040 C.3   105  LEU105      0.0270
    128  CG        48.7620   21.2990   36.1620 C.3   105  LEU105      0.0019
    129  CD1       49.5110   22.3640   36.9800 C.3   105  LEU105      0.0001
    130  CD2       49.6720   20.0970   35.9920 C.3   105  LEU105      0.0001
    131  N         47.4150   16.2910   37.6460 N.3   116  LEU116     -0.1245
    132  CA        47.7080   16.6130   39.0280 C.3   116  LEU116      0.1561
    133  C         46.4920   17.3420   39.5800 C.2   116  LEU116      0.2260
    134  O         45.8750   18.1660   38.8850 O.2   116  LEU116     -0.2867
    135  CB        48.9330   17.5270   39.1410 C.3   116  LEU116      0.0270
    136  CG        49.2230   17.9020   40.6030 C.3   116  LEU116      0.0019
    137  CD1       50.7310   17.9290   40.8290 C.3   116  LEU116      0.0001
    138  CD2       48.6100   19.2560   40.9340 C.3   116  LEU116      0.0001
    139  N         43.9290   23.3350   48.1570 N.3   120  TYR120     -0.1241
    140  CA        44.5770   24.4380   48.8490 C.3   120  TYR120      0.1605
    141  C         43.6010   25.0350   49.8640 C.2   120  TYR120      0.2264
    142  O         42.3680   25.0150   49.6620 O.2   120  TYR120     -0.2867
    143  CB        45.0110   25.4990   47.8270 C.3   120  TYR120      0.0534
    144  CG        45.8780   24.9110   46.7440 C.ar  120  TYR120     -0.0201
    145  CD1       47.2520   24.7370   46.9450 C.ar  120  TYR120     -0.0009
    146  CD2       45.3100   24.4300   45.5620 C.ar  120  TYR120     -0.0009
    147  CE1       48.0300   24.0820   46.0080 C.ar  120  TYR120      0.0417
    148  CE2       46.0710   23.7780   44.6050 C.ar  120  TYR120      0.0417
    149  CZ        47.4310   23.5990   44.8370 C.ar  120  TYR120      0.1957
    150  OH        48.1850   22.8890   43.9360 O.3   120  TYR120     -0.2866
@<TRIPOS>BOND
     1    79    80    1
     2    91    92    1
     3    94    93    2
     4    82    81    2
     5    81    80    1
     6    80    83    1
     7    92    93    1
     8    92    95    1
     9   125   126    2
    10   125   124    1
    11    83    84    1
    12   130   128    1
    13    95    96    1
    14   124   127    1
    15   124   123    1
    16   128   127    1
    17   128   129    1
    18    97    96   ar
    19    97    99   ar
    20    96    98   ar
    21    19    18   ar
    22    19    17   ar
    23    99   101   ar
    24    44    45    1
    25    84    85   ar
    26    84    86   ar
    27    98   100   ar
    28    18    16   ar
    29    17    15   ar
    30   101   100   ar
    31    85    87   ar
    32    86    88   ar
    33   131   132    1
    34    47    46    2
    35   102   103    1
    36    73    72    1
    37    73    74    2
    38    76    75    1
    39    76    77    1
    40    45    46    1
    41    45    48    1
    42    49    50    1
    43    49    48    1
    44    49    51    1
    45    72    75    1
    46    72    71    1
    47    77    78    1
    48    16    14   ar
    49    15    14   ar
    50    88    89   ar
    51    87    89   ar
    52   134   133    2
    53   132   135    1
    54   132   133    1
    55    89    90    1
    56   135   136    1
    57    14    13    1
    58   105   104    2
    59   104   103    1
    60   103   106    1
    61    58    57    1
    62   107   106    1
    63   107   109    1
    64   106   108    1
    65    57    59    1
    66    57    56    1
    67   120   121    2
    68   120   119    1
    69   136   137    1
    70   136   138    1
    71    13    10    1
    72    52    53    1
    73   119   122    1
    74   119   118    1
    75    56    53    1
    76     9    10    1
    77    10    11    1
    78    26    25    1
    79    53    54    1
    80    55    54    2
    81    68    70   ar
    82    68    66   ar
    83    70    69   ar
    84    42    40    1
    85    25    27    1
    86    25    24    1
    87    66    65   ar
    88    11    12    2
    89    69    67   ar
    90   117   115    1
    91   150   149    1
    92    43    41    1
    93    40    41    1
    94    40    37    1
    95    24    21    1
    96    65    67   ar
    97    65    64    1
    98    38    37    1
    99    38    39    2
   100   116   115    1
   101    37    36    1
   102   115   114    1
   103   148   149   ar
   104   148   146   ar
   105   149   147   ar
   106    64    61    1
   107    34    33    1
   108    20    21    1
   109     8     6    1
   110    60    61    1
   111    21    22    1
   112   146   144   ar
   113   112   113    2
   114   112   111    1
   115     3     2    1
   116     3     4    2
   117    35    33    1
   118     7     6    1
   119   114   111    1
   120     5     6    1
   121     5     2    1
   122   147   145   ar
   123    61    62    1
   124     2     1    1
   125    33    32    1
   126   111   110    1
   127    22    23    2
   128    63    62    2
   129   144   145   ar
   130   144   143    1
   131    32    29    1
   132    29    28    1
   133    29    30    1
   134   143   140    1
   135   139   140    1
   136    30    31    2
   137   140   141    1
   138   142   141    2
