@<TRIPOS>MOLECULE
tmp/1znnA00.pdb
 97 90 0 0 0
SMALL
GASTEIGER

@<TRIPOS>ATOM
      1  N         -2.1550   46.3510   20.5990 N.3     7  ASP7       -0.1239
      2  CA        -2.7010   46.5540   21.9400 C.3     7  ASP7        0.1674
      3  C         -3.8840   47.4910   21.8120 C.2     7  ASP7        0.2266
      4  O         -3.7580   48.5410   21.1950 O.2     7  ASP7       -0.2867
      5  CB        -1.6700   47.2280   22.8560 C.3     7  ASP7        0.1410
      6  CG        -0.5350   46.2830   23.2890 C.2     7  ASP7        0.3668
      7  OD1       -0.6590   45.0460   23.1290 O.co2   7  ASP7       -0.2456
      8  OD2        0.4850   46.7780   23.8300 O.co2   7  ASP7       -0.2456
      9  N         -4.5960   42.6810   21.2060 N.3    26  MET26      -0.1245
     10  CA        -4.2600   42.3660   22.5810 C.3    26  MET26       0.1570
     11  C         -5.1230   43.2960   23.4680 C.2    26  MET26       0.2261
     12  O         -4.8930   44.5000   23.4710 O.2    26  MET26      -0.2867
     13  CB        -2.7770   42.6110   22.7860 C.3    26  MET26       0.0387
     14  CG        -2.2850   42.3930   24.2450 C.3    26  MET26       0.0595
     15  SD        -2.4790   40.6850   24.8390 S.3    26  MET26      -0.1393
     16  CE        -1.1970   39.8890   23.8550 C.3    26  MET26       0.0692
     17  N         -3.6290   39.1980   28.8430 N.3    55  LYS55      -0.1245
     18  CA        -2.4120   38.8800   29.6220 C.3    55  LYS55       0.1561
     19  C         -2.7540   38.2750   30.9630 C.2    55  LYS55       0.2260
     20  O         -3.7720   38.5970   31.5610 O.2    55  LYS55      -0.2867
     21  CB        -1.5180   40.1310   29.8160 C.3    55  LYS55       0.0271
     22  CG        -1.2450   40.8500   28.4720 C.3    55  LYS55       0.0035
     23  CD        -0.1600   41.9290   28.5670 C.3    55  LYS55       0.0206
     24  CE         0.2080   42.4030   27.1630 C.3    55  LYS55       0.1093
     25  NZ         1.4990   43.1850   27.1520 N.3    55  LYS55      -0.1314
     26  N         -1.2920   35.7340   26.7410 N.3    76  ASP76      -0.1239
     27  CA         0.0920   36.1470   26.8620 C.3    76  ASP76       0.1674
     28  C          0.4650   35.9860   28.3430 C.2    76  ASP76       0.2266
     29  O         -0.0610   36.7240   29.2140 O.2    76  ASP76      -0.2867
     30  CB         0.2640   37.6020   26.3910 C.3    76  ASP76       0.1410
     31  CG         1.7180   38.0820   26.4390 C.2    76  ASP76       0.3668
     32  OD1        2.6480   37.2830   26.7050 O.co2  76  ASP76      -0.2456
     33  OD2        1.9600   39.2820   26.2040 O.co2  76  ASP76      -0.2456
     34  N          5.3790   41.7640   31.6870 N.3    80  VAL80      -0.1245
     35  CA         5.1030   43.1650   32.0290 C.3    80  VAL80       0.1561
     36  C          4.0010   43.2920   33.0830 C.2    80  VAL80       0.2260
     37  O          3.8340   44.3540   33.7210 O.2    80  VAL80      -0.2867
     38  CB         4.8390   44.0690   30.7840 C.3    80  VAL80       0.0252
     39  CG1        6.0070   43.9040   29.7340 C.3    80  VAL80       0.0019
     40  CG2        3.5130   43.7630   30.1300 C.3    80  VAL80       0.0019
     41  N          7.4170   35.6150   21.4580 N.3   121  ARG121     -0.1245
     42  CA         7.7380   36.9490   21.0010 C.3   121  ARG121      0.1563
     43  C          8.9960   37.3630   21.7490 C.2   121  ARG121      0.2260
     44  O          9.3550   36.7330   22.7530 O.2   121  ARG121     -0.2867
     45  CB         6.6010   37.9360   21.3400 C.3   121  ARG121      0.0307
     46  CG         6.2500   37.9350   22.8070 C.3   121  ARG121      0.0489
     47  CD         5.3840   39.1300   23.3140 C.3   121  ARG121      0.2205
     48  NE         4.9110   38.7830   24.6730 N.pl3 121  ARG121     -0.0865
     49  CZ         5.6670   38.9060   25.7740 C.cat 121  ARG121      0.5346
     50  NH1        6.9040   39.4250   25.6860 N.pl3 121  ARG121      0.1354
     51  NH2        5.2050   38.5020   26.9510 N.pl3 121  ARG121      0.1354
     52  N          9.3600   47.2540   26.4750 N.3   126  PRO126     -0.2102
     53  CA         8.0660   47.9270   26.2010 C.3   126  PRO126      0.1504
     54  C          8.0210   49.3120   26.8170 C.2   126  PRO126      0.2576
     55  O          8.6730   49.5400   27.8130 O.2   126  PRO126     -0.2718
     56  CB         7.0300   46.9980   26.8550 C.3   126  PRO126      0.0282
     57  CG         7.6820   45.6130   26.7350 C.3   126  PRO126      0.0208
     58  CD         9.1600   45.9520   27.1420 C.3   126  PRO126      0.0893
     59  N          7.2880   50.2250   26.1930 N.am  127  GLY127     -0.1957
     60  CA         7.0750   51.5700   26.7250 C.3   127  GLY127      0.1869
     61  C          8.1340   52.6000   26.4050 C.2   127  GLY127      0.2309
     62  O          7.9990   53.7660   26.7890 O.2   127  GLY127     -0.2863
     63  N          8.5090   42.2570   19.5310 N.3   186  ALA186     -0.1231
     64  CA         7.6520   43.0280   20.4470 C.3   186  ALA186      0.1694
     65  C          8.4970   43.9150   21.3370 C.2   186  ALA186      0.2593
     66  O          9.5100   43.4640   21.8700 O.2   186  ALA186     -0.2718
     67  CB         6.8110   42.0770   21.3180 C.3   186  ALA186      0.0304
     68  N          8.0920   45.1740   21.4690 N.am  187  GLY187     -0.1942
     69  CA         8.7260   46.1280   22.3720 C.3   187  GLY187      0.2014
     70  C          9.3840   47.2250   21.5450 C.2   187  GLY187      0.2639
     71  O         10.3890   46.9810   20.8630 O.2   187  GLY187     -0.2714
     72  N          8.8180   48.4270   21.5810 N.am  188  GLY188     -0.1954
     73  CA         9.4480   49.5760   20.9630 C.3   188  GLY188      0.1869
     74  C          9.1880   49.7500   19.4610 C.2   188  GLY188      0.2309
     75  O          9.6710   50.7310   18.8870 O.2   188  GLY188     -0.2863
     76  N          4.2350   42.7890   17.2820 N.3   207  PHE207     -0.1227
     77  CA         3.2300   43.3640   18.1960 C.3   207  PHE207      0.1736
     78  C          3.5320   44.8310   18.2920 C.2   207  PHE207      0.2595
     79  O          4.7000   45.1930   18.4010 O.2   207  PHE207     -0.2718
     80  CB         3.3410   42.8120   19.6350 C.3   207  PHE207      0.0547
     81  CG         2.8930   41.3810   19.8080 C.ar  207  PHE207     -0.0202
     82  CD1        1.6240   41.0940   20.3000 C.ar  207  PHE207     -0.0042
     83  CD2        3.7880   40.3330   19.6050 C.ar  207  PHE207     -0.0042
     84  CE1        1.2170   39.7650   20.5190 C.ar  207  PHE207     -0.0003
     85  CE2        3.4020   39.0090   19.8150 C.ar  207  PHE207     -0.0003
     86  CZ         2.1050   38.7170   20.2840 C.ar  207  PHE207     -0.0000
     87  N          2.5010   45.6820   18.2890 N.am  208  VAL208     -0.1966
     88  CA         2.7040   47.1190   18.5180 C.3   208  VAL208      0.1727
     89  C          1.7790   47.5800   19.6420 C.2   208  VAL208      0.2616
     90  O          0.7570   46.9260   19.9130 O.2   208  VAL208     -0.2715
     91  CB         2.4530   47.9900   17.2400 C.3   208  VAL208      0.0290
     92  CG1        3.4580   47.6090   16.1850 C.3   208  VAL208      0.0023
     93  CG2        1.0250   47.8100   16.7240 C.3   208  VAL208      0.0023
     94  N          2.1430   48.6900   20.2920 N.am  209  GLY209     -0.1955
     95  CA         1.5030   49.0830   21.5440 C.3   209  GLY209      0.1869
     96  C          0.5310   50.2220   21.3560 C.2   209  GLY209      0.2309
     97  O          0.0880   50.5170   20.2370 O.2   209  GLY209     -0.2863
@<TRIPOS>BOND
     1    92    91    1
     2    93    91    1
     3    91    88    1
     4    76    77    1
     5    77    78    1
     6    77    80    1
     7    87    78   am
     8    87    88    1
     9    78    79    2
    10    88    89    1
    11    75    74    2
    12    74    73    1
    13    63    64    1
    14    83    81   ar
    15    83    85   ar
    16    80    81    1
    17    89    90    2
    18    89    94   am
    19    81    82   ar
    20    85    86   ar
    21    97    96    2
    22    86    84   ar
    23    94    95    1
    24    82    84   ar
    25    64    67    1
    26    64    65    1
    27     1     2    1
    28    71    70    2
    29    73    72    1
    30    42    45    1
    31    42    41    1
    32    42    43    1
    33     4     3    2
    34     9    10    1
    35    65    68   am
    36    65    66    2
    37    45    46    1
    38    96    95    1
    39    68    69    1
    40    70    72   am
    41    70    69    1
    42    43    44    2
    43     3     2    1
    44     2     5    1
    45    10    13    1
    46    10    11    1
    47    13    14    1
    48    46    47    1
    49     5     6    1
    50     7     6   ar
    51     6     8   ar
    52    47    48    1
    53    11    12    2
    54    16    15    1
    55    14    15    1
    56    48    49    2
    57    50    49    1
    58    49    51    1
    59    59    60    1
    60    59    54   am
    61    53    52    1
    62    53    54    1
    63    53    56    1
    64    33    31   ar
    65    30    31    1
    66    30    27    1
    67    61    60    1
    68    61    62    2
    69    31    32   ar
    70    52    58    1
    71    57    56    1
    72    57    58    1
    73    26    27    1
    74    54    55    2
    75    27    28    1
    76    25    24    1
    77    24    23    1
    78    28    29    2
    79    22    23    1
    80    22    21    1
    81    17    18    1
    82    18    21    1
    83    18    19    1
    84    39    38    1
    85    40    38    1
    86    38    35    1
    87    19    20    2
    88    34    35    1
    89    35    36    1
    90    36    37    2
