@<TRIPOS>MOLECULE
tmp/1znxA00.pdb
 127 119 0 0 0
SMALL
GASTEIGER

@<TRIPOS>ATOM
      1  N         26.5380   -0.5020   32.1510 N.3    34  SER34      -0.1217
      2  CA        25.9140   -0.0800   30.9020 C.3    34  SER34       0.1889
      3  C         26.7880   -0.3680   29.6950 C.2    34  SER34       0.2288
      4  O         28.0180   -0.3570   29.7940 O.2    34  SER34      -0.2866
      5  CB        25.6370    1.4220   30.9570 C.3    34  SER34       0.2089
      6  OG        24.7490    1.7150   32.0160 O.3    34  SER34      -0.2183
      7  N         31.1870    4.9640   23.4050 N.3    38  ARG38      -0.1245
      8  CA        32.3580    5.8210   23.5030 C.3    38  ARG38       0.1563
      9  C         33.5650    4.9610   23.8190 C.2    38  ARG38       0.2260
     10  O         33.4130    3.7760   24.1510 O.2    38  ARG38      -0.2867
     11  CB        32.1810    6.9470   24.5320 C.3    38  ARG38       0.0307
     12  CG        32.1540    6.5370   25.9960 C.3    38  ARG38       0.0489
     13  CD        32.4940    7.7740   26.8390 C.3    38  ARG38       0.2205
     14  NE        32.3430    7.5510   28.2760 N.pl3  38  ARG38      -0.0865
     15  CZ        33.2340    6.9330   29.0480 C.cat  38  ARG38       0.5346
     16  NH1       34.3450    6.4370   28.5360 N.pl3  38  ARG38       0.1354
     17  NH2       33.0080    6.8020   30.3460 N.pl3  38  ARG38       0.1354
     18  N         38.1690    5.5550   29.0080 N.3    41  ARG41      -0.1245
     19  CA        39.1730    6.4520   29.5830 C.3    41  ARG41       0.1563
     20  C         40.1240    5.5070   30.3170 C.2    41  ARG41       0.2260
     21  O         39.7120    4.4190   30.6960 O.2    41  ARG41      -0.2867
     22  CB        38.5250    7.4530   30.5490 C.3    41  ARG41       0.0307
     23  CG        37.4650    8.3600   29.8990 C.3    41  ARG41       0.0489
     24  CD        36.5530    8.9790   30.9490 C.3    41  ARG41       0.2205
     25  NE        35.4480    9.7450   30.3750 N.pl3  41  ARG41      -0.0865
     26  CZ        34.2990   10.0090   31.0000 C.cat  41  ARG41       0.5346
     27  NH1       34.0850    9.5710   32.2380 N.pl3  41  ARG41       0.1354
     28  NH2       33.3500   10.7140   30.3830 N.pl3  41  ARG41       0.1354
     29  N         31.9360   -0.0510   32.0610 N.3    50  TYR50      -0.1241
     30  CA        30.9940   -0.1010   30.9470 C.3    50  TYR50       0.1605
     31  C         31.2780   -1.3870   30.1890 C.2    50  TYR50       0.2264
     32  O         32.3430   -1.9730   30.3390 O.2    50  TYR50      -0.2867
     33  CB        31.2130    1.0800   29.9660 C.3    50  TYR50       0.0534
     34  CG        30.5700    2.3870   30.3770 C.ar   50  TYR50      -0.0201
     35  CD1       29.2570    2.6750   30.0120 C.ar   50  TYR50      -0.0009
     36  CD2       31.2720    3.3320   31.1270 C.ar   50  TYR50      -0.0009
     37  CE1       28.6560    3.8490   30.3920 C.ar   50  TYR50       0.0417
     38  CE2       30.6690    4.5200   31.5230 C.ar   50  TYR50       0.0417
     39  CZ        29.3650    4.7650   31.1460 C.ar   50  TYR50       0.1957
     40  OH        28.7490    5.9390   31.4930 O.3    50  TYR50      -0.2866
     41  N         16.8040   -0.1880   27.8410 N.3    69  GLU69      -0.1245
     42  CA        16.6630    1.2120   27.4660 C.3    69  GLU69       0.1567
     43  C         17.9630    1.6360   26.8430 C.2    69  GLU69       0.2260
     44  O         18.9880    1.0430   27.1240 O.2    69  GLU69      -0.2867
     45  CB        16.3320    2.0920   28.6900 C.3    69  GLU69       0.0388
     46  CG        17.3470    2.1020   29.8510 C.3    69  GLU69       0.1160
     47  CD        18.5540    3.0100   29.6220 C.2    69  GLU69       0.3649
     48  OE1       19.6490    2.6500   30.1070 O.co2  69  GLU69      -0.2457
     49  OE2       18.4090    4.0800   28.9700 O.co2  69  GLU69      -0.2457
     50  N         19.9710    5.5670   25.1030 N.3    71  ALA71      -0.1245
     51  CA        19.8030    6.9370   24.6540 C.3    71  ALA71       0.1562
     52  C         20.9980    7.3760   23.8340 C.2    71  ALA71       0.2260
     53  O         22.0830    6.8050   23.9690 O.2    71  ALA71      -0.2867
     54  CB        19.5700    7.8940   25.8670 C.3    71  ALA71       0.0290
     55  N         23.7970   10.0400   23.4820 N.3    73  ILE73      -0.1231
     56  CA        24.4910   10.8590   24.4500 C.3    73  ILE73       0.1692
     57  C         25.1530   12.0620   23.7660 C.2    73  ILE73       0.2592
     58  O         25.7620   11.9160   22.7120 O.2    73  ILE73      -0.2718
     59  CB        25.4970   10.0220   25.2840 C.3    73  ILE73       0.0266
     60  CG1       24.8820    8.6640   25.6970 C.3    73  ILE73       0.0019
     61  CG2       25.9630   10.8100   26.5260 C.3    73  ILE73       0.0020
     62  CD1       23.6870    8.7650   26.7140 C.3    73  ILE73       0.0001
     63  N         25.0110   13.2390   24.3870 N.am   74  HIS74      -0.1976
     64  CA        25.4820   14.5340   23.8640 C.3    74  HIS74       0.1656
     65  C         25.0210   14.8340   22.4480 C.2    74  HIS74       0.2291
     66  O         25.8210   15.2520   21.5960 O.2    74  HIS74      -0.2864
     67  CB        26.9980   14.7070   23.9940 C.3    74  HIS74       0.0771
     68  CG        27.5180   14.3610   25.3490 C.ar   74  HIS74       0.0820
     69  ND1       28.6590   13.6140   25.5400 N.ar   74  HIS74      -0.2267
     70  CD2       27.0200   14.6120   26.5840 C.ar   74  HIS74       0.1154
     71  CE1       28.8500   13.4320   26.8330 C.ar   74  HIS74       0.1986
     72  NE2       27.8670   14.0250   27.4880 N.ar   74  HIS74      -0.2212
     73  N         27.5500    9.6130   20.8800 N.3    78  HIS78      -0.1241
     74  CA        27.6260    8.1900   21.1090 C.3    78  HIS78       0.1621
     75  C         26.3450    7.7350   21.7950 C.2    78  HIS78       0.2264
     76  O         25.4230    8.5280   21.9880 O.2    78  HIS78      -0.2867
     77  CB        28.9060    7.8160   21.9050 C.3    78  HIS78       0.0745
     78  CG        28.9470    8.3490   23.3130 C.ar   78  HIS78       0.0817
     79  ND1       28.4580    7.6430   24.3930 N.ar   78  HIS78      -0.2268
     80  CD2       29.4390    9.5070   23.8190 C.ar   78  HIS78       0.1154
     81  CE1       28.6370    8.3440   25.4990 C.ar   78  HIS78       0.1986
     82  NE2       29.2240    9.4820   25.1770 N.ar   78  HIS78      -0.2212
     83  N         24.5070    5.0530   24.9290 N.3    80  SER80      -0.1202
     84  CA        24.6250    4.2610   26.1540 C.3    80  SER80       0.2020
     85  C         23.2700    3.6570   26.4400 C.2    80  SER80       0.2619
     86  O         22.2640    4.1850   26.0000 O.2    80  SER80      -0.2717
     87  CB        25.0670    5.1130   27.3390 C.3    80  SER80       0.2103
     88  OG        26.3930    5.5960   27.1770 O.3    80  SER80      -0.2182
     89  N         23.2630    2.5430   27.1700 N.am   81  GLY81      -0.1942
     90  CA        22.0500    1.9140   27.6020 C.3    81  GLY81       0.2014
     91  C         22.2970    0.7040   28.4730 C.2    81  GLY81       0.2639
     92  O         23.4320    0.2780   28.6760 O.2    81  GLY81      -0.2714
     93  N         21.1970    0.1470   28.9610 N.am   82  THR82      -0.1950
     94  CA        21.1630   -0.9740   29.8850 C.3    82  THR82       0.1897
     95  C         20.8650   -2.2370   29.1160 C.2    82  THR82       0.2313
     96  O         19.8410   -2.3300   28.4430 O.2    82  THR82      -0.2863
     97  CB        20.0450   -0.7650   30.9270 C.3    82  THR82       0.1794
     98  OG1       20.2530    0.5010   31.5840 O.3    82  THR82      -0.2208
     99  CG2       20.0300   -1.9120   31.9690 C.3    82  THR82       0.0378
    100  N         20.6380    2.3910   37.9770 N.3   100  GLU100     -0.1231
    101  CA        20.4910    3.8060   38.2340 C.3   100  GLU100      0.1699
    102  C         20.4450    4.5030   36.8830 C.2   100  GLU100      0.2592
    103  O         21.4020    4.4140   36.1280 O.2   100  GLU100     -0.2718
    104  CB        21.7010    4.2990   39.0520 C.3   100  GLU100      0.0402
    105  CG        21.6180    5.7210   39.5470 C.3   100  GLU100      0.1161
    106  CD        22.9500    6.4240   39.4510 C.2   100  GLU100      0.3649
    107  OE1       23.5770    6.3490   38.3690 O.co2 100  GLU100     -0.2457
    108  OE2       23.3850    7.0520   40.4450 O.co2 100  GLU100     -0.2457
    109  N         19.3430    5.1900   36.5870 N.am  101  VAL101     -0.1966
    110  CA        19.1570    5.8560   35.2880 C.3   101  VAL101      0.1727
    111  C         18.3820    7.1380   35.4430 C.2   101  VAL101      0.2616
    112  O         17.7080    7.3130   36.4450 O.2   101  VAL101     -0.2715
    113  CB        18.3730    4.9760   34.2240 C.3   101  VAL101      0.0290
    114  CG1       19.3140    4.2030   33.3650 C.3   101  VAL101      0.0023
    115  CG2       17.3400    4.0780   34.8700 C.3   101  VAL101      0.0023
    116  N         18.4690    8.0210   34.4390 N.am  102  ASP102     -0.1971
    117  CA        17.6010    9.1880   34.3450 C.3   102  ASP102      0.1709
    118  C         16.1380    8.7780   34.1320 C.2   102  ASP102      0.2293
    119  O         15.8340    7.6240   33.8200 O.2   102  ASP102     -0.2864
    120  CB        18.0850   10.2170   33.2890 C.3   102  ASP102      0.1436
    121  CG        18.0490    9.6900   31.8400 C.2   102  ASP102      0.3671
    122  OD1       17.4380    8.6340   31.5550 O.co2 102  ASP102     -0.2456
    123  OD2       18.6440   10.3670   30.9590 O.co2 102  ASP102     -0.2456
    124  N         15.0570    6.8750   30.9880 N.3   105  GLY105     -0.1225
    125  CA        15.5350    5.4970   31.0700 C.3   105  GLY105      0.1811
    126  C         14.7470    4.6250   32.0300 C.2   105  GLY105      0.2280
    127  O         14.5170    3.4630   31.7450 O.2   105  GLY105     -0.2866
@<TRIPOS>BOND
     1    73    74    1
     2    74    75    1
     3    74    77    1
     4    66    65    2
     5    75    76    2
     6    77    78    1
     7    65    64    1
     8    58    57    2
     9    78    80   ar
    10    78    79   ar
    11     7     8    1
    12    55    56    1
    13     8     9    1
    14     8    11    1
    15    57    63   am
    16    57    56    1
    17     9    10    2
    18    80    82   ar
    19    52    53    2
    20    52    51    1
    21    64    67    1
    22    64    63    1
    23    67    68    1
    24    79    81   ar
    25    56    59    1
    26    11    12    1
    27    51    50    1
    28    51    54    1
    29    83    84    1
    30    82    81   ar
    31    59    60    1
    32    59    61    1
    33    68    69   ar
    34    68    70   ar
    35    69    71   ar
    36    60    62    1
    37    12    13    1
    38    86    85    2
    39    84    85    1
    40    84    87    1
    41    85    89   am
    42    70    72   ar
    43    71    72   ar
    44    13    14    1
    45    43    44    2
    46    43    42    1
    47    89    90    1
    48    88    87    1
    49    42    41    1
    50    42    45    1
    51    90    91    1
    52    14    15    2
    53    96    95    2
    54    91    92    2
    55    91    93   am
    56    16    15    1
    57    45    46    1
    58    93    94    1
    59    49    47   ar
    60    18    19    1
    61    15    17    1
    62    95    94    1
    63    19    20    1
    64    19    22    1
    65    47    46    1
    66    47    48   ar
    67     3     4    2
    68     3     2    1
    69    94    97    1
    70    23    22    1
    71    23    24    1
    72    33    34    1
    73    33    30    1
    74    35    34   ar
    75    35    37   ar
    76    31    32    2
    77    31    30    1
    78    20    21    2
    79    25    24    1
    80    25    26    2
    81    34    36   ar
    82    28    26    1
    83    37    39   ar
    84     2     5    1
    85     2     1    1
    86    97    98    1
    87    97    99    1
    88    30    29    1
    89     5     6    1
    90   123   121   ar
    91   124   125    1
    92    26    27    1
    93   125   126    1
    94    36    38   ar
    95    39    40    1
    96    39    38   ar
    97   122   121   ar
    98   127   126    2
    99   121   120    1
   100   120   117    1
   101   114   113    1
   102   119   118    2
   103   118   117    1
   104   113   115    1
   105   113   110    1
   106   117   116    1
   107   116   111   am
   108   110   111    1
   109   110   109    1
   110   111   112    2
   111   103   102    2
   112   109   102   am
   113   102   101    1
   114   100   101    1
   115   101   104    1
   116   107   106   ar
   117   104   105    1
   118   106   105    1
   119   106   108   ar
