@<TRIPOS>MOLECULE
tmp/1znyA00.pdb
 136 127 0 0 0
SMALL
GASTEIGER

@<TRIPOS>ATOM
      1  N         26.6710   -0.4560   32.4680 N.3    34  SER34      -0.1217
      2  CA        26.0960   -0.0060   31.2110 C.3    34  SER34       0.1889
      3  C         27.0050   -0.2980   30.0070 C.2    34  SER34       0.2288
      4  O         28.2150   -0.2580   30.1220 O.2    34  SER34      -0.2866
      5  CB        25.8900    1.5250   31.2910 C.3    34  SER34       0.2089
      6  OG        25.0110    1.9150   32.3470 O.3    34  SER34      -0.2183
      7  N         31.4470    5.0960   23.5000 N.3    38  ARG38      -0.1245
      8  CA        32.6610    5.9100   23.6070 C.3    38  ARG38       0.1563
      9  C         33.8480    4.9940   23.9090 C.2    38  ARG38       0.2260
     10  O         33.6600    3.8120   24.2510 O.2    38  ARG38      -0.2867
     11  CB        32.5320    7.0010   24.6750 C.3    38  ARG38       0.0307
     12  CG        32.5260    6.5530   26.1600 C.3    38  ARG38       0.0489
     13  CD        32.8420    7.7580   27.0650 C.3    38  ARG38       0.2205
     14  NE        32.6430    7.5830   28.5000 N.pl3  38  ARG38      -0.0865
     15  CZ        33.5130    7.0600   29.3530 C.cat  38  ARG38       0.5346
     16  NH1       34.6600    6.5550   28.9430 N.pl3  38  ARG38       0.1354
     17  NH2       33.2100    7.0130   30.6470 N.pl3  38  ARG38       0.1354
     18  N         38.6140    5.5180   29.1020 N.3    41  ARG41      -0.1245
     19  CA        39.6180    6.4010   29.6780 C.3    41  ARG41       0.1563
     20  C         40.5760    5.4650   30.4200 C.2    41  ARG41       0.2260
     21  O         40.1820    4.3930   30.8480 O.2    41  ARG41      -0.2867
     22  CB        38.9680    7.4020   30.6550 C.3    41  ARG41       0.0307
     23  CG        37.8470    8.2960   30.0440 C.3    41  ARG41       0.0489
     24  CD        36.9340    8.9700   31.0970 C.3    41  ARG41       0.2205
     25  NE        35.8140    9.7310   30.5250 N.pl3  41  ARG41      -0.0865
     26  CZ        34.6810   10.0330   31.1720 C.cat  41  ARG41       0.5346
     27  NH1       34.4710    9.6480   32.4300 N.pl3  41  ARG41       0.1354
     28  NH2       33.7280   10.7200   30.5530 N.pl3  41  ARG41       0.1354
     29  N         39.8440    2.7930   33.3300 N.3    44  GLU44      -0.1245
     30  CA        38.5230    2.1380   33.1980 C.3    44  GLU44       0.1567
     31  C         38.7500    0.6980   32.7480 C.2    44  GLU44       0.2260
     32  O         39.6250    0.4470   31.9060 O.2    44  GLU44      -0.2867
     33  CB        37.5810    2.8910   32.2330 C.3    44  GLU44       0.0388
     34  CG        37.1020    4.2380   32.7740 C.3    44  GLU44       0.1160
     35  CD        36.0750    4.9460   31.8900 C.2    44  GLU44       0.3649
     36  OE1       36.2250    4.9820   30.6560 O.co2  44  GLU44      -0.2457
     37  OE2       35.1130    5.5010   32.4360 O.co2  44  GLU44      -0.2457
     38  N         32.3210    0.1470   32.3210 N.3    50  TYR50      -0.1241
     39  CA        31.3440    0.0070   31.2390 C.3    50  TYR50       0.1605
     40  C         31.6440   -1.2910   30.4770 C.2    50  TYR50       0.2264
     41  O         32.6610   -1.9420   30.7040 O.2    50  TYR50      -0.2867
     42  CB        31.4160    1.1940   30.2380 C.3    50  TYR50       0.0534
     43  CG        30.8080    2.5100   30.7150 C.ar   50  TYR50      -0.0201
     44  CD1       29.4890    2.8580   30.4050 C.ar   50  TYR50      -0.0009
     45  CD2       31.5530    3.4010   31.4660 C.ar   50  TYR50      -0.0009
     46  CE1       28.9320    4.0740   30.8500 C.ar   50  TYR50       0.0417
     47  CE2       31.0030    4.6120   31.9200 C.ar   50  TYR50       0.0417
     48  CZ        29.7010    4.9440   31.6030 C.ar   50  TYR50       0.1957
     49  OH        29.1950    6.1590   32.0330 O.3    50  TYR50      -0.2866
     50  N         17.0240   -0.1760   28.0820 N.3    69  GLU69      -0.1245
     51  CA        16.9480    1.2230   27.6850 C.3    69  GLU69       0.1567
     52  C         18.2800    1.6550   27.0950 C.2    69  GLU69       0.2260
     53  O         19.3030    1.0460   27.3620 O.2    69  GLU69      -0.2867
     54  CB        16.5700    2.1370   28.8690 C.3    69  GLU69       0.0388
     55  CG        17.5470    2.1740   30.0410 C.3    69  GLU69       0.1160
     56  CD        18.7340    3.0900   29.8170 C.2    69  GLU69       0.3649
     57  OE1       19.8620    2.7330   30.2670 O.co2  69  GLU69      -0.2457
     58  OE2       18.5500    4.1640   29.1790 O.co2  69  GLU69      -0.2457
     59  N         20.2080    5.6190   25.2940 N.3    71  ALA71      -0.1245
     60  CA        20.0620    6.9930   24.8190 C.3    71  ALA71       0.1562
     61  C         21.2810    7.4760   24.0470 C.2    71  ALA71       0.2260
     62  O         22.3420    6.8820   24.1270 O.2    71  ALA71      -0.2867
     63  CB        19.7700    7.9570   26.0120 C.3    71  ALA71       0.0290
     64  N         24.0220   10.2900   23.8150 N.3    73  ILE73      -0.1231
     65  CA        24.7400   11.1210   24.7670 C.3    73  ILE73       0.1692
     66  C         25.4370   12.2910   24.0620 C.2    73  ILE73       0.2592
     67  O         26.0570   12.0930   23.0350 O.2    73  ILE73      -0.2718
     68  CB        25.7850   10.2660   25.5260 C.3    73  ILE73       0.0266
     69  CG1       25.1890    8.9080   25.9590 C.3    73  ILE73       0.0019
     70  CG2       26.3000   11.0310   26.7380 C.3    73  ILE73       0.0020
     71  CD1       24.0350    9.0180   26.9760 C.3    73  ILE73       0.0001
     72  N         25.3410   13.4880   24.6400 N.am   74  HIS74      -0.1976
     73  CA        25.8190   14.7400   24.0230 C.3    74  HIS74       0.1656
     74  C         25.3610   14.8830   22.5880 C.2    74  HIS74       0.2291
     75  O         26.1700   15.1060   21.6890 O.2    74  HIS74      -0.2864
     76  CB        27.3490   14.8810   24.1110 C.3    74  HIS74       0.0771
     77  CG        27.8850   14.6630   25.4880 C.ar   74  HIS74       0.0820
     78  ND1       29.1100   14.0770   25.7300 N.ar   74  HIS74      -0.2267
     79  CD2       27.3410   14.9160   26.7040 C.ar   74  HIS74       0.1154
     80  CE1       29.3070   13.9960   27.0340 C.ar   74  HIS74       0.1986
     81  NE2       28.2440   14.4900   27.6470 N.ar   74  HIS74      -0.2212
     82  N         27.9010    9.7180   21.0550 N.3    78  HIS78      -0.1241
     83  CA        27.8810    8.2810   21.2490 C.3    78  HIS78       0.1621
     84  C         26.5880    7.8630   21.9530 C.2    78  HIS78       0.2264
     85  O         25.6820    8.6660   22.1350 O.2    78  HIS78      -0.2867
     86  CB        29.1370    7.8380   22.0220 C.3    78  HIS78       0.0745
     87  CG        29.1900    8.3200   23.4450 C.ar   78  HIS78       0.0817
     88  ND1       28.6520    7.6050   24.4940 N.ar   78  HIS78      -0.2268
     89  CD2       29.7710    9.4130   23.9950 C.ar   78  HIS78       0.1154
     90  CE1       28.8570    8.2650   25.6240 C.ar   78  HIS78       0.1986
     91  NE2       29.5290    9.3680   25.3470 N.ar   78  HIS78      -0.2212
     92  N         24.8080    5.1780   25.1640 N.3    80  SER80      -0.1202
     93  CA        24.9760    4.3740   26.3700 C.3    80  SER80       0.2023
     94  C         23.6360    3.7230   26.6790 C.2    80  SER80       0.2658
     95  O         22.6130    4.2840   26.3590 O.2    80  SER80      -0.2713
     96  CB        25.3870    5.2730   27.5440 C.3    80  SER80       0.2104
     97  OG        26.7670    5.6440   27.4900 O.3    80  SER80      -0.2182
     98  N         23.6440    2.5660   27.3560 N.am   81  GLY81      -0.1718
     99  CA        22.4180    1.9130   27.7700 C.2    81  GLY81       0.1480
    100  C         22.5940    0.7180   28.6880 C.2    81  GLY81       0.2821
    101  O         23.7080    0.2540   28.9830 O.2    81  GLY81      -0.2669
    102  N         21.4580    0.2170   29.1480 N.am   82  THR82      -0.1916
    103  CA        21.3810   -0.9280   30.0560 C.3    82  THR82       0.1900
    104  C         21.0670   -2.1930   29.2780 C.2    82  THR82       0.2313
    105  O         20.0660   -2.2380   28.5370 O.2    82  THR82      -0.2863
    106  CB        20.2720   -0.7130   31.0940 C.3    82  THR82       0.1794
    107  OG1       20.5340    0.4790   31.8570 O.3    82  THR82      -0.2208
    108  CG2       20.2970   -1.8240   32.1450 C.3    82  THR82       0.0378
    109  N         20.8860    2.4740   38.2700 N.3   100  GLU100     -0.1231
    110  CA        20.7340    3.8870   38.5130 C.3   100  GLU100      0.1699
    111  C         20.6620    4.5840   37.1800 C.2   100  GLU100      0.2592
    112  O         21.6140    4.4980   36.4050 O.2   100  GLU100     -0.2718
    113  CB        21.9460    4.3950   39.3070 C.3   100  GLU100      0.0402
    114  CG        21.7400    5.7500   39.9550 C.3   100  GLU100      0.1161
    115  CD        22.7580    6.7750   39.5100 C.2   100  GLU100      0.3649
    116  OE1       23.7590    6.9920   40.2540 O.co2 100  GLU100     -0.2457
    117  OE2       22.5700    7.3700   38.4270 O.co2 100  GLU100     -0.2457
    118  N         19.5470    5.2640   36.9030 N.am  101  VAL101     -0.1966
    119  CA        19.3700    5.9660   35.6260 C.3   101  VAL101      0.1727
    120  C         18.6060    7.2690   35.7930 C.2   101  VAL101      0.2616
    121  O         17.9210    7.4700   36.8130 O.2   101  VAL101     -0.2715
    122  CB        18.5400    5.1300   34.5630 C.3   101  VAL101      0.0290
    123  CG1       19.4250    4.2820   33.7480 C.3   101  VAL101      0.0023
    124  CG2       17.4500    4.3260   35.2030 C.3   101  VAL101      0.0023
    125  N         18.6990    8.1200   34.7700 N.am  102  ASP102     -0.1971
    126  CA        17.8060    9.2770   34.6430 C.3   102  ASP102      0.1709
    127  C         16.3400    8.8500   34.4150 C.2   102  ASP102      0.2293
    128  O         16.0500    7.6970   34.1250 O.2   102  ASP102     -0.2864
    129  CB        18.3030   10.3280   33.6050 C.3   102  ASP102      0.1436
    130  CG        18.2780    9.8330   32.1260 C.2   102  ASP102      0.3671
    131  OD1       17.5240    8.9020   31.7720 O.co2 102  ASP102     -0.2456
    132  OD2       18.9900   10.3490   31.2290 O.co2 102  ASP102     -0.2456
    133  N         15.2440    6.9290   31.2290 N.3   105  GLY105     -0.1225
    134  CA        15.7210    5.5600   31.3070 C.3   105  GLY105      0.1811
    135  C         14.8760    4.6720   32.2090 C.2   105  GLY105      0.2280
    136  O         14.6570    3.5080   31.9060 O.2   105  GLY105     -0.2866
@<TRIPOS>BOND
     1    82    83    1
     2    83    84    1
     3    83    86    1
     4    75    74    2
     5    84    85    2
     6    86    87    1
     7    74    73    1
     8    67    66    2
     9    87    89   ar
    10    87    88   ar
    11     7     8    1
    12     8     9    1
    13     8    11    1
    14    64    65    1
    15     9    10    2
    16    89    91   ar
    17    73    76    1
    18    73    72    1
    19    61    62    2
    20    61    60    1
    21    66    72   am
    22    66    65    1
    23    76    77    1
    24    88    90   ar
    25    11    12    1
    26    65    68    1
    27    60    59    1
    28    60    63    1
    29    92    93    1
    30    91    90   ar
    31    77    78   ar
    32    77    79   ar
    33    68    69    1
    34    68    70    1
    35    78    80   ar
    36    69    71    1
    37    12    13    1
    38    95    94    2
    39    93    94    1
    40    93    96    1
    41    94    98    1
    42    79    81   ar
    43    80    81   ar
    44    13    14    1
    45    52    53    2
    46    52    51    1
    47    98    99    2
    48    97    96    1
    49    51    50    1
    50    51    54    1
    51    99   100    1
    52    14    15    2
    53   105   104    2
    54   100   101    2
    55   100   102   am
    56    54    55    1
    57    16    15    1
    58    18    19    1
    59   102   103    1
    60    58    56   ar
    61   104   103    1
    62    15    17    1
    63    19    20    1
    64    19    22    1
    65    56    55    1
    66    56    57   ar
    67     3     4    2
    68     3     2    1
    69    23    22    1
    70    23    24    1
    71   103   106    1
    72    42    43    1
    73    42    39    1
    74    44    43   ar
    75    44    46   ar
    76    20    21    2
    77    40    41    2
    78    40    39    1
    79    25    24    1
    80    25    26    2
    81    28    26    1
    82    36    35   ar
    83    43    45   ar
    84    46    48   ar
    85   106   107    1
    86   106   108    1
    87    26    27    1
    88     2     5    1
    89     2     1    1
    90   133   134    1
    91   132   130   ar
    92    39    38    1
    93     5     6    1
    94   134   135    1
    95    45    47   ar
    96    48    47   ar
    97    48    49    1
    98   131   130   ar
    99    35    37   ar
   100    35    34    1
   101   136   135    2
   102    32    31    2
   103   130   129    1
   104    33    34    1
   105    33    30    1
   106    31    30    1
   107    30    29    1
   108   129   126    1
   109   123   122    1
   110   128   127    2
   111   127   126    1
   112   122   124    1
   113   122   119    1
   114   126   125    1
   115   125   120   am
   116   119   120    1
   117   119   118    1
   118   120   121    2
   119   112   111    2
   120   118   111   am
   121   111   110    1
   122   109   110    1
   123   117   115   ar
   124   110   113    1
   125   113   114    1
   126   115   114    1
   127   115   116   ar
