@<TRIPOS>MOLECULE
tmp/1zo8N00.pdb
 122 120 0 0 0
SMALL
GASTEIGER

@<TRIPOS>ATOM
      1  N         94.9750   -2.9780   28.7010 N.3    11  PHE11      -0.1241
      2  CA        96.2860   -3.2510   29.2730 C.3    11  PHE11       0.1605
      3  C         96.3820   -4.6620   29.8630 C.2    11  PHE11       0.2264
      4  O         96.2320   -5.6420   29.1390 O.2    11  PHE11      -0.2867
      5  CB        96.5670   -2.1770   30.3270 C.3    11  PHE11       0.0534
      6  CG        98.0240   -1.9930   30.6610 C.ar   11  PHE11      -0.0203
      7  CD1       99.0190   -2.3510   29.7590 C.ar   11  PHE11      -0.0042
      8  CD2       98.3940   -1.4060   31.8700 C.ar   11  PHE11      -0.0042
      9  CE1      100.3660   -2.1240   30.0550 C.ar   11  PHE11      -0.0003
     10  CE2       99.7320   -1.1740   32.1750 C.ar   11  PHE11      -0.0003
     11  CZ       100.7210   -1.5330   31.2660 C.ar   11  PHE11      -0.0000
     12  N         98.9880    8.6240   26.4870 N.3    83  PRO83      -0.2116
     13  CA        99.9810    9.6750   26.2850 C.3    83  PRO83       0.1372
     14  C        100.3880    9.7760   24.8240 C.2    83  PRO83       0.2244
     15  O        100.0900    8.8960   24.0130 O.2    83  PRO83      -0.2868
     16  CB       101.1330    9.2010   27.1480 C.3    83  PRO83       0.0268
     17  CG       101.1310    7.7310   26.8270 C.3    83  PRO83       0.0207
     18  CD        99.6430    7.3670   26.8900 C.3    83  PRO83       0.0892
     19  N        103.8440   10.9900   22.3590 N.3    85  PHE85      -0.1241
     20  CA       105.2790   11.2360   22.4210 C.3    85  PHE85       0.1605
     21  C        105.4090   12.7240   22.0940 C.2    85  PHE85       0.2264
     22  O        104.8160   13.1970   21.1210 O.2    85  PHE85      -0.2867
     23  CB       106.0160   10.4160   21.3520 C.3    85  PHE85       0.0534
     24  CG       106.2450    8.9720   21.7250 C.ar   85  PHE85      -0.0203
     25  CD1      107.3810    8.5940   22.4350 C.ar   85  PHE85      -0.0042
     26  CD2      105.3360    7.9870   21.3450 C.ar   85  PHE85      -0.0042
     27  CE1      107.6100    7.2590   22.7600 C.ar   85  PHE85      -0.0003
     28  CE2      105.5560    6.6450   21.6660 C.ar   85  PHE85      -0.0003
     29  CZ       106.6970    6.2820   22.3740 C.ar   85  PHE85      -0.0000
     30  N        104.6380   -0.0180   34.3900 N.3   131  SER131     -0.1217
     31  CA       105.2850   -0.0080   33.0880 C.3   131  SER131      0.1889
     32  C        106.7790   -0.2650   33.2210 C.2   131  SER131      0.2288
     33  O        107.3710    0.0290   34.2550 O.2   131  SER131     -0.2866
     34  CB       105.0620    1.3580   32.4310 C.3   131  SER131      0.2089
     35  OG       105.8660    1.5150   31.2790 O.3   131  SER131     -0.2183
     36  N        108.8440    1.1000   31.0490 N.3   133  THR133     -0.1218
     37  CA       109.4890    2.2400   30.3990 C.3   133  THR133      0.1862
     38  C        110.5270    2.9150   31.2970 C.2   133  THR133      0.2287
     39  O        111.5510    3.4040   30.8140 O.2   133  THR133     -0.2866
     40  CB       108.4470    3.2790   29.9000 C.3   133  THR133      0.1770
     41  OG1      107.6120    3.7080   30.9870 O.3   133  THR133     -0.2211
     42  CG2      107.5760    2.6580   28.8150 C.3   133  THR133      0.0375
     43  N        112.4620    5.9250   26.4060 N.3   138  TRP138     -0.1241
     44  CA       112.6140    6.3130   25.0090 C.3   138  TRP138      0.1605
     45  C        112.6620    7.8280   25.0500 C.2   138  TRP138      0.2264
     46  O        112.2060    8.4320   26.0200 O.2   138  TRP138     -0.2867
     47  CB       111.3900    5.9370   24.1750 C.3   138  TRP138      0.0550
     48  CG       111.1600    4.4930   23.9520 C.ar  138  TRP138      0.0003
     49  CD1      112.0230    3.5950   23.3880 C.ar  138  TRP138      0.0946
     50  CD2      109.9440    3.7850   24.1940 C.ar  138  TRP138      0.0152
     51  NE1      111.4100    2.3720   23.2590 N.ar  138  TRP138     -0.2442
     52  CE2      110.1340    2.4620   23.7460 C.ar  138  TRP138      0.0810
     53  CE3      108.7070    4.1450   24.7440 C.ar  138  TRP138      0.0012
     54  CZ2      109.1320    1.4920   23.8300 C.ar  138  TRP138      0.0191
     55  CZ3      107.7160    3.1880   24.8280 C.ar  138  TRP138      0.0001
     56  CH2      107.9320    1.8730   24.3730 C.ar  138  TRP138      0.0015
     57  N        108.9780   10.9170   25.9490 N.3   141  LEU141     -0.1245
     58  CA       107.8300   10.3020   26.6160 C.3   141  LEU141      0.1561
     59  C        108.0720   10.4920   28.1090 C.2   141  LEU141      0.2260
     60  O        107.7730    9.6120   28.9130 O.2   141  LEU141     -0.2867
     61  CB       107.7340    8.8060   26.2920 C.3   141  LEU141      0.0270
     62  CG       106.4290    8.1280   26.7400 C.3   141  LEU141      0.0019
     63  CD1      105.2450    8.7710   26.0250 C.3   141  LEU141      0.0001
     64  CD2      106.4720    6.6320   26.4340 C.3   141  LEU141      0.0001
     65  N        104.6490   10.2470   30.7740 N.3   144  TYR144     -0.1241
     66  CA       104.2260    8.8850   31.0540 C.3   144  TYR144      0.1605
     67  C        105.2860    8.0650   31.8010 C.2   144  TYR144      0.2264
     68  O        104.9870    7.3870   32.7860 O.2   144  TYR144     -0.2867
     69  CB       103.8690    8.2030   29.7340 C.3   144  TYR144      0.0534
     70  CG       103.4520    6.7600   29.8600 C.ar  144  TYR144     -0.0201
     71  CD1      104.3970    5.7350   29.8680 C.ar  144  TYR144     -0.0009
     72  CD2      102.1060    6.4190   29.9740 C.ar  144  TYR144     -0.0009
     73  CE1      104.0100    4.4020   29.9870 C.ar  144  TYR144      0.0417
     74  CE2      101.7070    5.0980   30.0910 C.ar  144  TYR144      0.0417
     75  CZ       102.6610    4.0960   30.0960 C.ar  144  TYR144      0.1957
     76  OH       102.2600    2.7830   30.1920 O.3   144  TYR144     -0.2866
     77  N        105.0700   -3.8890   32.6420 N.3   174  PRO174     -0.2102
     78  CA       105.2320   -4.5490   31.3510 C.3   174  PRO174      0.1504
     79  C        105.6440   -3.6030   30.2410 C.2   174  PRO174      0.2575
     80  O        105.6960   -2.3810   30.4100 O.2   174  PRO174     -0.2718
     81  CB       103.8380   -5.1280   31.0660 C.3   174  PRO174      0.0282
     82  CG       102.9890   -4.7860   32.3040 C.3   174  PRO174      0.0208
     83  CD       103.6550   -3.5890   32.8970 C.3   174  PRO174      0.0893
     84  N        105.9570   -4.2040   29.1050 N.am  175  ASN175     -0.1975
     85  CA       106.2610   -3.4790   27.8830 C.3   175  ASN175      0.1688
     86  C        106.1350   -4.5360   26.7990 C.2   175  ASN175      0.2292
     87  O        106.4630   -5.7080   27.0160 O.2   175  ASN175     -0.2864
     88  CB       107.6550   -2.8450   27.8770 C.3   175  ASN175      0.1181
     89  CG       107.7300   -1.6400   26.9300 C.2   175  ASN175      0.2629
     90  OD1      106.7700   -1.3500   26.2040 O.2   175  ASN175     -0.2716
     91  ND2      108.8560   -0.9360   26.9370 N.am  175  ASN175     -0.0877
     92  N        103.4920   -5.8150   25.7870 N.3   177  LEU177     -0.1245
     93  CA       102.4820   -6.7700   26.2230 C.3   177  LEU177      0.1561
     94  C        101.3050   -6.7010   25.2530 C.2   177  LEU177      0.2260
     95  O        100.6240   -5.6770   25.1620 O.2   177  LEU177     -0.2867
     96  CB       101.9780   -6.4360   27.6310 C.3   177  LEU177      0.0270
     97  CG       100.7640   -7.2480   28.1050 C.3   177  LEU177      0.0019
     98  CD1      101.1700   -8.7010   28.3000 C.3   177  LEU177      0.0001
     99  CD2      100.2180   -6.6690   29.4080 C.3   177  LEU177      0.0001
    100  N         98.5590   -1.3690   25.2540 N.3   185  PHE185     -0.1227
    101  CA        99.2170   -0.3810   24.4060 C.3   185  PHE185      0.1736
    102  C         99.8090   -1.0420   23.1620 C.2   185  PHE185      0.2595
    103  O        100.4490   -0.3790   22.3420 O.2   185  PHE185     -0.2718
    104  CB       100.3330    0.3310   25.1750 C.3   185  PHE185      0.0547
    105  CG        99.8640    1.0370   26.4150 C.ar  185  PHE185     -0.0202
    106  CD1       99.8450    0.3770   27.6400 C.ar  185  PHE185     -0.0042
    107  CD2       99.4450    2.3630   26.3610 C.ar  185  PHE185     -0.0042
    108  CE1       99.4160    1.0270   28.7990 C.ar  185  PHE185     -0.0003
    109  CE2       99.0140    3.0250   27.5150 C.ar  185  PHE185     -0.0003
    110  CZ        99.0010    2.3550   28.7370 C.ar  185  PHE185     -0.0000
    111  N         99.6060   -2.3490   23.0310 N.am  186  TYR186     -0.1976
    112  CA       100.1210   -3.0890   21.8800 C.3   186  TYR186      0.1639
    113  C         99.0650   -3.9800   21.2410 C.2   186  TYR186      0.2290
    114  O         99.1090   -5.2040   21.3580 O.2   186  TYR186     -0.2864
    115  CB       101.3310   -3.9410   22.2770 C.3   186  TYR186      0.0560
    116  CG       102.5460   -3.1150   22.6200 C.ar  186  TYR186     -0.0198
    117  CD1      102.7240   -2.5920   23.9030 C.ar  186  TYR186     -0.0009
    118  CD2      103.5030   -2.8210   21.6510 C.ar  186  TYR186     -0.0009
    119  CE1      103.8310   -1.7950   24.2090 C.ar  186  TYR186      0.0417
    120  CE2      104.6050   -2.0230   21.9470 C.ar  186  TYR186      0.0417
    121  CZ       104.7650   -1.5160   23.2220 C.ar  186  TYR186      0.1957
    122  OH       105.8600   -0.7290   23.5040 O.3   186  TYR186     -0.2866
@<TRIPOS>BOND
     1    22    21    2
     2   113   114    2
     3   113   112    1
     4    26    28   ar
     5    26    24   ar
     6    23    24    1
     7    23    20    1
     8   118   120   ar
     9   118   116   ar
    10    28    29   ar
    11    24    25   ar
    12   112   115    1
    13   112   111    1
    14   120   121   ar
    15    21    20    1
    16   115   116    1
    17   103   102    2
    18    19    20    1
    19    29    27   ar
    20    25    27   ar
    21   116   117   ar
    22   111   102   am
    23   102   101    1
    24   121   122    1
    25   121   119   ar
    26    51    49   ar
    27    51    52   ar
    28    49    48   ar
    29    52    54   ar
    30    52    50   ar
    31    54    56   ar
    32   117   119   ar
    33    48    47    1
    34    48    50   ar
    35    15    14    2
    36    47    44    1
    37    50    53   ar
    38    56    55   ar
    39   101   104    1
    40   101   100    1
    41    53    55   ar
    42    14    13    1
    43    44    45    1
    44    44    43    1
    45    45    46    2
    46    95    94    2
    47   104   105    1
    48    94    93    1
    49    92    93    1
    50    57    58    1
    51    63    62    1
    52    90    89    2
    53    93    96    1
    54    13    12    1
    55    13    16    1
    56    61    58    1
    57    61    62    1
    58   107   105   ar
    59   107   109   ar
    60   105   106   ar
    61    64    62    1
    62    12    18    1
    63    58    59    1
    64    86    87    2
    65    86    85    1
    66    17    18    1
    67    17    16    1
    68    89    91   am
    69    89    88    1
    70   109   110   ar
    71    96    97    1
    72   106   108   ar
    73    88    85    1
    74    85    84    1
    75    97    98    1
    76    97    99    1
    77    59    60    2
    78     1     2    1
    79   110   108   ar
    80    42    40    1
    81    84    79   am
    82     4     3    2
    83     2     3    1
    84     2     5    1
    85    69    70    1
    86    69    66    1
    87     7     9   ar
    88     7     6   ar
    89    70    71   ar
    90    70    72   ar
    91    71    73   ar
    92    40    37    1
    93    40    41    1
    94    72    74   ar
    95    73    75   ar
    96     9    11   ar
    97    74    75   ar
    98    75    76    1
    99    79    80    2
   100    79    78    1
   101     5     6    1
   102    37    36    1
   103    37    38    1
   104     6     8   ar
   105    65    66    1
   106    39    38    2
   107    66    67    1
   108    81    78    1
   109    81    82    1
   110    11    10   ar
   111    35    34    1
   112    78    77    1
   113    67    68    2
   114     8    10   ar
   115    82    83    1
   116    34    31    1
   117    77    83    1
   118    31    32    1
   119    31    30    1
   120    32    33    2
