@<TRIPOS>MOLECULE
tmp/1zodA01.pdb
 112 107 0 0 0
SMALL
GASTEIGER

@<TRIPOS>ATOM
      1  N         22.1160   43.7700   11.8400 N.3   108  THR108     -0.1203
      2  CA        21.4790   44.6730   12.7590 C.3   108  THR108      0.1994
      3  C         21.1350   46.0180   12.1000 C.2   108  THR108      0.2618
      4  O         21.5890   46.3060   11.0090 O.2   108  THR108     -0.2717
      5  CB        22.3420   44.9680   14.0270 C.3   108  THR108      0.1784
      6  OG1       23.3920   45.8870   13.6730 O.3   108  THR108     -0.2211
      7  CG2       22.9210   43.6350   14.6110 C.3   108  THR108      0.0376
      8  N         20.2920   46.7820   12.7860 N.am  109  GLY109     -0.1942
      9  CA        19.8890   48.0990   12.2710 C.3   109  GLY109      0.2014
     10  C         21.0570   49.0890   12.2660 C.2   109  GLY109      0.2638
     11  O         21.2760   49.8170   11.2730 O.2   109  GLY109     -0.2714
     12  N         21.8230   49.1370   13.3550 N.am  110  ALA110     -0.1977
     13  CA        22.9490   50.0720   13.3380 C.3   110  ALA110      0.1597
     14  C         23.8300   49.7270   12.1650 C.2   110  ALA110      0.2287
     15  O         24.3450   50.5860   11.4210 O.2   110  ALA110     -0.2864
     16  CB        23.7520   49.9930   14.6900 C.3   110  ALA110      0.0319
     17  N         22.5050   50.9480    8.8790 N.3   113  ASN113     -0.1240
     18  CA        22.7360   52.4070    8.7270 C.3   113  ASN113      0.1653
     19  C         24.2180   52.6970    8.4480 C.2   113  ASN113      0.2266
     20  O         24.5600   53.5780    7.6810 O.2   113  ASN113     -0.2867
     21  CB        22.2500   53.1580    9.9550 C.3   113  ASN113      0.1155
     22  CG        20.7160   53.1670   10.0470 C.2   113  ASN113      0.2627
     23  OD1       20.0470   53.2490    9.0140 O.2   113  ASN113     -0.2716
     24  ND2       20.1720   53.0660   11.2590 N.am  113  ASN113     -0.0877
     25  N         17.1170   58.2600   16.3650 N.3   136  TRP136     -0.1227
     26  CA        17.8000   57.0760   16.9400 C.3   136  TRP136      0.1737
     27  C         18.1600   56.1960   15.7580 C.2   136  TRP136      0.2595
     28  O         17.2610   55.7560   15.0350 O.2   136  TRP136     -0.2718
     29  CB        16.9380   56.2710   17.9300 C.3   136  TRP136      0.0564
     30  CG        17.6570   55.0330   18.4250 C.ar  136  TRP136      0.0003
     31  CD1       17.5650   53.7580   17.9330 C.ar  136  TRP136      0.0946
     32  CD2       18.5790   54.9800   19.5190 C.ar  136  TRP136      0.0152
     33  NE1       18.3860   52.8940   18.6700 N.ar  136  TRP136     -0.2442
     34  CE2       19.0180   53.6300   19.6400 C.ar  136  TRP136      0.0810
     35  CE3       19.0970   55.9530   20.3970 C.ar  136  TRP136      0.0012
     36  CZ2       19.9330   53.2230   20.6230 C.ar  136  TRP136      0.0191
     37  CZ3       20.0250   55.5450   21.3840 C.ar  136  TRP136      0.0001
     38  CH2       20.4290   54.1890   21.4780 C.ar  136  TRP136      0.0015
     39  N         19.4680   55.9590   15.5220 N.am  137  HIS137     -0.1961
     40  CA        19.8920   55.1060   14.4080 C.3   137  HIS137      0.1787
     41  C         20.7650   53.9260   14.8780 C.2   137  HIS137      0.2621
     42  O         21.1620   53.0730   14.0830 O.2   137  HIS137     -0.2715
     43  CB        20.6310   55.9460   13.3330 C.3   137  HIS137      0.0785
     44  CG        19.7610   57.0050   12.7240 C.ar  137  HIS137      0.0821
     45  ND1       18.6470   56.6960   11.9710 N.ar  137  HIS137     -0.2267
     46  CD2       19.7800   58.3540   12.8450 C.ar  137  HIS137      0.1154
     47  CE1       18.0110   57.8220   11.6490 C.ar  137  HIS137      0.1986
     48  NE2       18.6750   58.8380   12.1670 N.ar  137  HIS137     -0.2212
     49  N         21.0070   53.8320   16.1830 N.am  138  GLY138     -0.1940
     50  CA        21.7970   52.6780   16.6280 C.3   138  GLY138      0.2014
     51  C         23.0090   53.1010   17.4530 C.2   138  GLY138      0.2638
     52  O         23.3520   54.3060   17.5270 O.2   138  GLY138     -0.2714
     53  N         23.6660   52.0850   18.0430 N.am  139  MET139     -0.1976
     54  CA        24.7780   52.3000   18.9620 C.3   139  MET139      0.1605
     55  C         26.1800   52.3570   18.3790 C.2   139  MET139      0.2287
     56  O         27.1000   52.8240   19.0600 O.2   139  MET139     -0.2864
     57  CB        24.7910   51.1840   20.0220 C.3   139  MET139      0.0413
     58  CG        23.5400   51.1240   20.9050 C.3   139  MET139      0.0598
     59  SD        23.4170   52.5120   22.0300 S.3   139  MET139     -0.1393
     60  CE        23.6260   54.0130   20.9210 C.3   139  MET139      0.0692
     61  N         14.2690   58.8880   10.0130 N.3   208  GLU208     -0.1245
     62  CA        13.2640   57.8500   10.2940 C.3   208  GLU208      0.1567
     63  C         11.9530   58.5230    9.7730 C.2   208  GLU208      0.2260
     64  O         11.7510   59.7130   10.0280 O.2   208  GLU208     -0.2867
     65  CB        13.0750   57.6900   11.7780 C.3   208  GLU208      0.0388
     66  CG        14.2540   57.0340   12.5250 C.3   208  GLU208      0.1160
     67  CD        14.1380   57.2840   14.0210 C.2   208  GLU208      0.3649
     68  OE1       13.4140   56.5220   14.7260 O.co2 208  GLU208     -0.2457
     69  OE2       14.7690   58.2610   14.4820 O.co2 208  GLU208     -0.2457
     70  N         12.0930   56.3980   18.9560 N.3   213  SER213     -0.1217
     71  CA        12.7470   56.6860   20.2320 C.3   213  SER213      0.1889
     72  C         12.5130   58.1010   20.6480 C.2   213  SER213      0.2288
     73  O         12.4050   58.4010   21.8450 O.2   213  SER213     -0.2866
     74  CB        14.2670   56.4860   20.1060 C.3   213  SER213      0.2089
     75  OG        14.5140   55.1420   19.8170 O.3   213  SER213     -0.2183
     76  N         15.6910   55.4250    7.2670 N.3   241  ASP241     -0.1239
     77  CA        15.8440   54.3240    8.2060 C.3   241  ASP241      0.1674
     78  C         14.4570   53.8430    8.6010 C.2   241  ASP241      0.2266
     79  O         13.7830   54.4940    9.4220 O.2   241  ASP241     -0.2867
     80  CB        16.6160   54.8680    9.4280 C.3   241  ASP241      0.1410
     81  CG        16.8330   53.8230   10.4960 C.2   241  ASP241      0.3668
     82  OD1       16.2570   52.7290   10.3560 O.co2 241  ASP241     -0.2456
     83  OD2       17.5820   54.1100   11.4730 O.co2 241  ASP241     -0.2456
     84  N         13.8500   50.9390   10.1580 N.3   243  ALA243     -0.1231
     85  CA        14.0540   49.8390   11.1090 C.3   243  ALA243      0.1694
     86  C         12.7220   49.5210   11.7990 C.2   243  ALA243      0.2591
     87  O         12.3850   48.3500   11.9760 O.2   243  ALA243     -0.2718
     88  CB        15.0910   50.2330   12.1910 C.3   243  ALA243      0.0304
     89  N         11.9830   50.5500   12.2230 N.am  244  GLN244     -0.1979
     90  CA        10.7090   50.2660   12.8900 C.3   244  GLN244      0.1601
     91  C          9.4580   50.4680   12.0420 C.2   244  GLN244      0.2287
     92  O          8.4000   49.8700   12.3260 O.2   244  GLN244     -0.2864
     93  CB        10.5620   51.1210   14.1390 C.3   244  GLN244      0.0394
     94  CG        11.4500   50.6290   15.2890 C.3   244  GLN244      0.0908
     95  CD        11.1930   51.4070   16.5580 C.2   244  GLN244      0.2608
     96  OE1       10.0470   51.6460   16.9410 O.2   244  GLN244     -0.2717
     97  NE2       12.2540   51.8090   17.2210 N.am  244  GLN244     -0.0878
     98  N         15.5290   46.6080    9.3130 N.3   269  SER269     -0.1202
     99  CA        16.1340   45.7280   10.3090 C.3   269  SER269      0.2020
    100  C         15.1580   45.0660   11.2850 C.2   269  SER269      0.2618
    101  O         14.7670   43.9160   11.0900 O.2   269  SER269     -0.2717
    102  CB        17.1990   46.4870   11.1150 C.3   269  SER269      0.2103
    103  OG        16.7090   47.7020   11.6870 O.3   269  SER269     -0.2182
    104  N         14.7730   45.7940   12.3300 N.am  270  LYS270     -0.1979
    105  CA        13.9100   45.2100   13.3840 C.3   270  LYS270      0.1596
    106  C         12.7380   44.3960   12.8490 C.2   270  LYS270      0.2287
    107  O         12.5930   43.2170   13.1610 O.2   270  LYS270     -0.2864
    108  CB        13.3350   46.2840   14.2950 C.3   270  LYS270      0.0298
    109  CG        14.3210   47.0880   15.1250 C.3   270  LYS270      0.0038
    110  CD        13.5700   47.5850   16.3680 C.3   270  LYS270      0.0206
    111  CE        13.9080   48.9690   16.8080 C.3   270  LYS270      0.1093
    112  NZ        15.3290   49.1120   17.1290 N.3   270  LYS270     -0.1314
@<TRIPOS>BOND
     1    76    77    1
     2    20    19    2
     3    77    78    1
     4    77    80    1
     5    19    18    1
     6    78    79    2
     7    18    17    1
     8    18    21    1
     9    23    22    2
    10    98    99    1
    11    80    81    1
    12    63    64    2
    13    63    62    1
    14    21    22    1
    15    61    62    1
    16    22    24   am
    17    84    85    1
    18    62    65    1
    19    99   102    1
    20    99   100    1
    21    82    81   ar
    22    81    83   ar
    23     4     3    2
    24   101   100    2
    25    85    86    1
    26    85    88    1
    27   102   103    1
    28    11    10    2
    29   100   104   am
    30    15    14    2
    31    47    45   ar
    32    47    48   ar
    33    65    66    1
    34    86    87    2
    35    86    89   am
    36     1     2    1
    37    45    44   ar
    38    91    92    2
    39    91    90    1
    40     3     2    1
    41     3     8   am
    42    14    13    1
    43    48    46   ar
    44    89    90    1
    45    10     9    1
    46    10    12   am
    47     9     8    1
    48   104   105    1
    49    66    67    1
    50    44    46   ar
    51    44    43    1
    52     2     5    1
    53   106   107    2
    54   106   105    1
    55    90    93    1
    56    43    40    1
    57    13    12    1
    58    13    16    1
    59   105   108    1
    60     6     5    1
    61    67    69   ar
    62    67    68   ar
    63     5     7    1
    64    42    41    2
    65    93    94    1
    66   108   109    1
    67    40    41    1
    68    40    39    1
    69    41    49   am
    70    28    27    2
    71   109   110    1
    72    94    95    1
    73    39    27   am
    74    27    26    1
    75    49    50    1
    76    25    26    1
    77   110   111    1
    78    95    96    2
    79    95    97   am
    80    50    51    1
    81   111   112    1
    82    26    29    1
    83    51    52    2
    84    51    53   am
    85    29    30    1
    86    31    30   ar
    87    31    33   ar
    88    53    54    1
    89    55    54    1
    90    55    56    2
    91    30    32   ar
    92    33    34   ar
    93    70    71    1
    94    54    57    1
    95    32    34   ar
    96    32    35   ar
    97    34    36   ar
    98    75    74    1
    99    57    58    1
   100    74    71    1
   101    71    72    1
   102    35    37   ar
   103    36    38   ar
   104    72    73    2
   105    58    59    1
   106    60    59    1
   107    37    38   ar
