@<TRIPOS>MOLECULE
tmp/1zodA00.pdb
 101 95 0 0 0
SMALL
GASTEIGER

@<TRIPOS>ATOM
      1  N         11.2170   44.1290   21.2540 N.3    50  GLN50      -0.1231
      2  CA        11.9010   45.4170   21.1420 C.3    50  GLN50       0.1698
      3  C         11.4830   46.0770   19.8140 C.2    50  GLN50       0.2592
      4  O         12.3160   46.2780   18.9070 O.2    50  GLN50      -0.2718
      5  CB        13.4290   45.2140   21.1990 C.3    50  GLN50       0.0381
      6  CG        14.1640   46.5510   21.4070 C.3    50  GLN50       0.0905
      7  CD        13.7050   47.2990   22.6600 C.2    50  GLN50       0.2608
      8  OE1       13.6080   46.7110   23.7280 O.2    50  GLN50      -0.2717
      9  NE2       13.4230   48.6120   22.5270 N.am   50  GLN50      -0.0878
     10  N         10.1770   46.3900   19.7050 N.am   51  MET51      -0.1979
     11  CA         9.5920   47.0480   18.5280 C.3    51  MET51       0.1605
     12  C          9.8840   46.2720   17.2590 C.2    51  MET51       0.2287
     13  O         10.0170   46.8600   16.2010 O.2    51  MET51      -0.2864
     14  CB        10.1560   48.4740   18.4090 C.3    51  MET51       0.0413
     15  CG        10.1330   49.2900   19.7490 C.3    51  MET51       0.0598
     16  SD         8.4130   49.6470   20.3780 S.3    51  MET51      -0.1393
     17  CE         7.8120   50.8130   19.1190 C.3    51  MET51       0.0692
     18  N         17.1170   58.2600   16.3650 N.3   136  TRP136     -0.1241
     19  CA        17.8000   57.0760   16.9400 C.3   136  TRP136      0.1605
     20  C         18.1600   56.1960   15.7580 C.2   136  TRP136      0.2264
     21  O         17.2610   55.7560   15.0350 O.2   136  TRP136     -0.2867
     22  CB        16.9380   56.2710   17.9300 C.3   136  TRP136      0.0550
     23  CG        17.6570   55.0330   18.4250 C.ar  136  TRP136      0.0003
     24  CD1       17.5650   53.7580   17.9330 C.ar  136  TRP136      0.0946
     25  CD2       18.5790   54.9800   19.5190 C.ar  136  TRP136      0.0152
     26  NE1       18.3860   52.8940   18.6700 N.ar  136  TRP136     -0.2442
     27  CE2       19.0180   53.6300   19.6400 C.ar  136  TRP136      0.0810
     28  CE3       19.0970   55.9530   20.3970 C.ar  136  TRP136      0.0012
     29  CZ2       19.9330   53.2230   20.6230 C.ar  136  TRP136      0.0191
     30  CZ3       20.0250   55.5450   21.3840 C.ar  136  TRP136      0.0001
     31  CH2       20.4290   54.1890   21.4780 C.ar  136  TRP136      0.0015
     32  N         18.7350   61.4680   20.0350 N.3   149  SER149     -0.1202
     33  CA        17.7890   61.3690   21.1460 C.3   149  SER149      0.2020
     34  C         18.4830   60.9930   22.4580 C.2   149  SER149      0.2618
     35  O         17.9720   61.3030   23.5500 O.2   149  SER149     -0.2717
     36  CB        16.7110   60.3180   20.8700 C.3   149  SER149      0.2103
     37  OG        17.2460   59.0110   20.7170 O.3   149  SER149     -0.2182
     38  N         19.6460   60.3450   22.3490 N.am  150  ALA150     -0.1979
     39  CA        20.3590   59.9030   23.5380 C.3   150  ALA150      0.1597
     40  C         21.7590   59.4200   23.2060 C.2   150  ALA150      0.2287
     41  O         22.1290   59.2620   22.0450 O.2   150  ALA150     -0.2864
     42  CB        19.5850   58.7480   24.1870 C.3   150  ALA150      0.0319
     43  N         12.0930   56.3980   18.9560 N.3   213  SER213     -0.1217
     44  CA        12.7470   56.6860   20.2320 C.3   213  SER213      0.1889
     45  C         12.5130   58.1010   20.6480 C.2   213  SER213      0.2288
     46  O         12.4050   58.4010   21.8450 O.2   213  SER213     -0.2866
     47  CB        14.2670   56.4860   20.1060 C.3   213  SER213      0.2089
     48  OG        14.5140   55.1420   19.8170 O.3   213  SER213     -0.2183
     49  N         11.9830   50.5500   12.2230 N.3   244  GLN244     -0.1245
     50  CA        10.7090   50.2660   12.8900 C.3   244  GLN244      0.1566
     51  C          9.4580   50.4680   12.0420 C.2   244  GLN244      0.2260
     52  O          8.4000   49.8700   12.3260 O.2   244  GLN244     -0.2867
     53  CB        10.5620   51.1210   14.1390 C.3   244  GLN244      0.0367
     54  CG        11.4500   50.6290   15.2890 C.3   244  GLN244      0.0905
     55  CD        11.1930   51.4070   16.5580 C.2   244  GLN244      0.2608
     56  OE1       10.0470   51.6460   16.9410 O.2   244  GLN244     -0.2717
     57  NE2       12.2540   51.8090   17.2210 N.am  244  GLN244     -0.0878
     58  N         14.7730   45.7940   12.3300 N.3   270  LYS270     -0.1245
     59  CA        13.9100   45.2100   13.3840 C.3   270  LYS270      0.1561
     60  C         12.7380   44.3960   12.8490 C.2   270  LYS270      0.2260
     61  O         12.5930   43.2170   13.1610 O.2   270  LYS270     -0.2867
     62  CB        13.3350   46.2840   14.2950 C.3   270  LYS270      0.0271
     63  CG        14.3210   47.0880   15.1250 C.3   270  LYS270      0.0035
     64  CD        13.5700   47.5850   16.3680 C.3   270  LYS270      0.0206
     65  CE        13.9080   48.9690   16.8080 C.3   270  LYS270      0.1093
     66  NZ        15.3290   49.1120   17.1290 N.3   270  LYS270     -0.1314
     67  N          8.9740   56.5090   26.5710 N.3   394  VAL394     -0.1231
     68  CA        10.2330   57.1690   26.2880 C.3   394  VAL394      0.1692
     69  C         10.1150   58.6060   26.7820 C.2   394  VAL394      0.2592
     70  O          9.0580   59.2490   26.6890 O.2   394  VAL394     -0.2718
     71  CB        10.6470   57.0810   24.7660 C.3   394  VAL394      0.0266
     72  CG1       11.0110   55.6330   24.4180 C.3   394  VAL394      0.0020
     73  CG2        9.5420   57.5820   23.8390 C.3   394  VAL394      0.0020
     74  N         11.2140   59.0880   27.3520 N.am  395  GLN395     -0.1966
     75  CA        11.2710   60.4130   27.9400 C.3   395  GLN395      0.1733
     76  C         12.4160   61.2440   27.3550 C.2   395  GLN395      0.2616
     77  O         13.5680   60.8430   27.4630 O.2   395  GLN395     -0.2715
     78  CB        11.4870   60.2550   29.4540 C.3   395  GLN395      0.0408
     79  CG        11.5240   61.5720   30.2280 C.3   395  GLN395      0.0908
     80  CD        10.1430   62.2120   30.3670 C.2   395  GLN395      0.2608
     81  OE1        9.2810   61.7020   31.0870 O.2   395  GLN395     -0.2717
     82  NE2        9.9300   63.3260   29.6700 N.am  395  GLN395     -0.0878
     83  N         12.0870   62.3730   26.7320 N.am  396  LEU396     -0.1977
     84  CA        13.0830   63.2930   26.1750 C.3   396  LEU396      0.1596
     85  C         12.8080   64.6650   26.7740 C.2   396  LEU396      0.2287
     86  O         11.6820   64.9680   27.1640 O.2   396  LEU396     -0.2864
     87  CB        12.9860   63.4190   24.6500 C.3   396  LEU396      0.0297
     88  CG        13.1270   62.2180   23.7060 C.3   396  LEU396      0.0022
     89  CD1       13.3760   62.7840   22.2870 C.3   396  LEU396      0.0001
     90  CD2       14.2770   61.3040   24.1210 C.3   396  LEU396      0.0001
     91  N          5.1220   54.1420   23.6230 N.3   404  ARG404     -0.1245
     92  CA         5.2770   53.6780   22.2300 C.3   404  ARG404      0.1563
     93  C          4.4940   52.3720   22.2050 C.2   404  ARG404      0.2260
     94  O          4.8840   51.3960   22.8470 O.2   404  ARG404     -0.2867
     95  CB         6.7400   53.4120   21.8850 C.3   404  ARG404      0.0307
     96  CG         7.5810   54.6990   21.9530 C.3   404  ARG404      0.0489
     97  CD         8.9630   54.4740   21.3380 C.3   404  ARG404      0.2205
     98  NE         9.7390   53.4800   22.0700 N.pl3 404  ARG404     -0.0865
     99  CZ        10.8500   52.9330   21.5950 C.cat 404  ARG404      0.5346
    100  NH1       11.2720   53.2800   20.3840 N.pl3 404  ARG404      0.1354
    101  NH2       11.5790   52.0980   22.3440 N.pl3 404  ARG404      0.1354
@<TRIPOS>BOND
     1    51    52    2
     2    51    50    1
     3    49    50    1
     4    58    59    1
     5    60    61    2
     6    60    59    1
     7    50    53    1
     8    59    62    1
     9    53    54    1
    10    62    63    1
    11    21    20    2
    12    63    64    1
    13    54    55    1
    14    20    19    1
    15    13    12    2
    16    18    19    1
    17    64    65    1
    18    55    56    2
    19    55    57   am
    20    65    66    1
    21    19    22    1
    22    12    11    1
    23    22    23    1
    24    24    23   ar
    25    24    26   ar
    26    14    11    1
    27    14    15    1
    28    23    25   ar
    29    11    10    1
    30    26    27   ar
    31     4     3    2
    32    43    44    1
    33    17    16    1
    34    25    27   ar
    35    25    28   ar
    36    27    29   ar
    37    10     3   am
    38    15    16    1
    39     3     2    1
    40    48    47    1
    41    32    33    1
    42    47    44    1
    43    44    45    1
    44   100    99    1
    45    28    30   ar
    46    29    31   ar
    47    45    46    2
    48    37    36    1
    49    36    33    1
    50     2     5    1
    51     2     1    1
    52    33    34    1
    53     5     6    1
    54    97    96    1
    55    97    98    1
    56    30    31   ar
    57     6     7    1
    58    99    98    2
    59    99   101    1
    60    95    96    1
    61    95    92    1
    62    41    40    2
    63    93    92    1
    64    93    94    2
    65    92    91    1
    66    89    88    1
    67    38    34   am
    68    38    39    1
    69    34    35    2
    70     9     7   am
    71     7     8    2
    72    40    39    1
    73    39    42    1
    74    88    90    1
    75    88    87    1
    76    73    71    1
    77    72    71    1
    78    87    84    1
    79    71    68    1
    80    84    83    1
    81    84    85    1
    82    68    67    1
    83    68    69    1
    84    70    69    2
    85    83    76   am
    86    85    86    2
    87    69    74   am
    88    74    75    1
    89    76    77    2
    90    76    75    1
    91    75    78    1
    92    78    79    1
    93    82    80   am
    94    79    80    1
    95    80    81    2
