@<TRIPOS>MOLECULE
tmp/1zoeA00.pdb
 140 130 0 0 0
SMALL
GASTEIGER

@<TRIPOS>ATOM
      1  N         26.6400    7.7690   26.7840 N.3    39  VAL39      -0.1231
      2  CA        25.2870    7.2340   26.7320 C.3    39  VAL39       0.1692
      3  C         25.1720    5.9210   25.9590 C.2    39  VAL39       0.2593
      4  O         24.1410    5.2560   26.1380 O.2    39  VAL39      -0.2718
      5  CB        24.2910    8.2150   26.0770 C.3    39  VAL39       0.0266
      6  CG1       23.9730    9.3960   26.9850 C.3    39  VAL39       0.0020
      7  CG2       24.8190    8.7010   24.7370 C.3    39  VAL39       0.0020
      8  N         26.1520    5.5700   25.1380 N.am   40  GLY40      -0.1942
      9  CA        26.1340    4.3240   24.3840 C.3    40  GLY40       0.2014
     10  C         27.4920    3.9540   23.8410 C.2    40  GLY40       0.2639
     11  O         28.5070    4.5810   24.1740 O.2    40  GLY40      -0.2714
     12  N         27.5600    2.9340   22.9910 N.am   41  ARG41      -0.1963
     13  CA        28.8380    2.5080   22.4320 C.3    41  ARG41       0.1729
     14  C         28.6550    1.3380   21.4710 C.2    41  ARG41       0.2616
     15  O         27.5840    0.7290   21.4620 O.2    41  ARG41      -0.2715
     16  CB        29.8050    2.0640   23.5350 C.3    41  ARG41       0.0348
     17  CG        29.2030    0.9600   24.4010 C.3    41  ARG41       0.0492
     18  CD        29.7400   -0.4150   24.0370 C.3    41  ARG41       0.2205
     19  NE        29.1020   -1.4700   24.8040 N.pl3  41  ARG41      -0.0865
     20  CZ        27.8780   -1.9440   24.6310 C.cat  41  ARG41       0.5346
     21  NH1       27.0880   -1.4640   23.6860 N.pl3  41  ARG41       0.1354
     22  NH2       27.4370   -2.9190   25.4190 N.pl3  41  ARG41       0.1354
     23  N         29.7230    1.0410   20.7410 N.am   42  GLY42      -0.1955
     24  CA        29.7150   -0.1240   19.8710 C.3    42  GLY42       0.1869
     25  C         31.0850   -0.4270   19.2850 C.2    42  GLY42       0.2309
     26  O         32.0270    0.3200   19.5400 O.2    42  GLY42      -0.2863
     27  N         32.3710    2.6670   17.5340 N.3    45  SER45      -0.1217
     28  CA        32.3090    3.9970   18.1320 C.3    45  SER45       0.1889
     29  C         31.9640    4.0470   19.6120 C.2    45  SER45       0.2288
     30  O         31.6890    3.0420   20.2740 O.2    45  SER45      -0.2866
     31  CB        31.2440    4.8010   17.3560 C.3    45  SER45       0.2089
     32  OG        29.9690    4.2700   17.6810 O.3    45  SER45      -0.2183
     33  N         29.5720    6.9550   22.0370 N.3    47  VAL47      -0.1245
     34  CA        28.5350    7.9480   21.9010 C.3    47  VAL47       0.1561
     35  C         28.2030    8.6470   23.2110 C.2    47  VAL47       0.2260
     36  O         28.0090    7.9970   24.2380 O.2    47  VAL47      -0.2867
     37  CB        27.2110    7.3020   21.4090 C.3    47  VAL47       0.0252
     38  CG1       26.1860    8.3920   21.1870 C.3    47  VAL47       0.0019
     39  CG2       27.4630    6.4610   20.1710 C.3    47  VAL47       0.0019
     40  N         23.9810   14.8320   20.2660 N.3    60  ILE60      -0.1245
     41  CA        24.6270   13.5370   20.4180 C.3    60  ILE60       0.1561
     42  C         25.9270   13.5220   19.6210 C.2    60  ILE60       0.2260
     43  O         25.9520   13.9440   18.4670 O.2    60  ILE60      -0.2867
     44  CB        23.7430   12.3690   19.9480 C.3    60  ILE60       0.0252
     45  CG1       22.4970   12.1630   20.8120 C.3    60  ILE60       0.0019
     46  CG2       24.5370   11.0680   19.8380 C.3    60  ILE60       0.0019
     47  CD1       22.7900   11.4530   22.1170 C.3    60  ILE60       0.0001
     48  N         29.0880   11.2230   18.2520 N.3    62  LYS62      -0.1245
     49  CA        29.5150    9.8760   17.9000 C.3    62  LYS62       0.1561
     50  C         30.9850    9.9160   17.5340 C.2    62  LYS62       0.2260
     51  O         31.3600   10.2600   16.4090 O.2    62  LYS62      -0.2867
     52  CB        28.6860    9.3220   16.7410 C.3    62  LYS62       0.0271
     53  CG        29.1390    7.9390   16.2680 C.3    62  LYS62       0.0035
     54  CD        28.0190    7.2730   15.4630 C.3    62  LYS62       0.0206
     55  CE        28.5910    6.3320   14.4140 C.3    62  LYS62       0.1093
     56  NZ        27.5480    5.6940   13.5520 N.3    62  LYS62      -0.1314
     57  N         17.4820    9.9200   11.6140 N.3    89  VAL89      -0.1245
     58  CA        18.3130   10.7400   12.5070 C.3    89  VAL89       0.1561
     59  C         19.0030   11.8420   11.7210 C.2    89  VAL89       0.2260
     60  O         19.4870   11.6190   10.6050 O.2    89  VAL89      -0.2867
     61  CB        19.3250    9.8440   13.2480 C.3    89  VAL89       0.0252
     62  CG1       20.4170    9.3910   12.3050 C.3    89  VAL89       0.0019
     63  CG2       19.9010   10.5600   14.4620 C.3    89  VAL89       0.0019
     64  N         24.8830   14.6870   15.9700 N.3   107  PHE107     -0.1227
     65  CA        23.4900   14.3750   15.6720 C.3   107  PHE107      0.1736
     66  C         22.5010   15.0660   16.6070 C.2   107  PHE107      0.2595
     67  O         22.8270   15.5070   17.7030 O.2   107  PHE107     -0.2718
     68  CB        23.2670   12.8600   15.7580 C.3   107  PHE107      0.0547
     69  CG        23.9610   11.9660   14.7540 C.ar  107  PHE107     -0.0202
     70  CD1       23.5220   11.8470   13.4430 C.ar  107  PHE107     -0.0042
     71  CD2       25.0690   11.2130   15.1290 C.ar  107  PHE107     -0.0042
     72  CE1       24.1540   11.0190   12.5350 C.ar  107  PHE107     -0.0003
     73  CE2       25.7130   10.3940   14.2160 C.ar  107  PHE107     -0.0003
     74  CZ        25.2590   10.2730   12.9140 C.ar  107  PHE107     -0.0000
     75  N         21.2310   15.1710   16.2090 N.am  108  GLU108     -0.1979
     76  CA        20.1780   15.6280   17.0980 C.3   108  GLU108      0.1602
     77  C         20.1190   14.7290   18.3340 C.2   108  GLU108      0.2287
     78  O         20.6560   13.6220   18.2400 O.2   108  GLU108     -0.2864
     79  CB        18.8210   15.6130   16.3870 C.3   108  GLU108      0.0415
     80  CG        18.4020   14.2670   15.8250 C.3   108  GLU108      0.1163
     81  CD        16.9730   14.2220   15.3150 C.2   108  GLU108      0.3649
     82  OE1       16.0220   14.5980   16.0300 O.co2 108  GLU108     -0.2457
     83  OE2       16.7610   13.7900   14.1630 O.co2 108  GLU108     -0.2457
     84  N         17.9590   12.6620   21.3370 N.3   110  VAL110     -0.1245
     85  CA        16.7780   11.8560   21.5520 C.3   110  VAL110      0.1561
     86  C         16.7870   11.2690   22.9580 C.2   110  VAL110      0.2260
     87  O         17.7430   10.5790   23.3320 O.2   110  VAL110     -0.2867
     88  CB        16.7060   10.7110   20.5220 C.3   110  VAL110      0.0252
     89  CG1       15.4230    9.9060   20.7100 C.3   110  VAL110      0.0019
     90  CG2       16.7920   11.2380   19.1010 C.3   110  VAL110      0.0019
     91  N         16.0560    8.5560   24.5310 N.3   112  ASN112     -0.1240
     92  CA        15.7140    7.1570   24.3110 C.3   112  ASN112      0.1653
     93  C         15.6250    6.3320   25.5890 C.2   112  ASN112      0.2266
     94  O         16.3250    6.5900   26.5700 O.2   112  ASN112     -0.2867
     95  CB        16.7520    6.5220   23.3690 C.3   112  ASN112      0.1155
     96  CG        16.5860    5.0490   23.0770 C.2   112  ASN112      0.2627
     97  OD1       15.6490    4.6170   22.3890 O.2   112  ASN112     -0.2716
     98  ND2       17.4990    4.2160   23.5870 N.am  112  ASN112     -0.0877
     99  N         18.0570   -1.9410   18.9050 N.3   154  HIS154     -0.1226
    100  CA        19.2040   -1.1400   19.3040 C.3   154  HIS154      0.1752
    101  C         19.4890   -0.0200   18.3120 C.2   154  HIS154      0.2596
    102  O         20.2020    0.9470   18.5950 O.2   154  HIS154     -0.2718
    103  CB        20.4540   -2.0200   19.4140 C.3   154  HIS154      0.0759
    104  CG        20.2650   -3.4470   19.8170 C.ar  154  HIS154      0.0818
    105  ND1       20.9500   -3.9500   20.9070 N.ar  154  HIS154     -0.2268
    106  CD2       19.5400   -4.4930   19.3380 C.ar  154  HIS154      0.1154
    107  CE1       20.6420   -5.2240   21.0780 C.ar  154  HIS154      0.1986
    108  NE2       19.7850   -5.5800   20.1380 N.ar  154  HIS154     -0.2212
    109  N         18.9580   -0.0880   17.0880 N.am  155  ASN155     -0.1974
    110  CA        19.2690    0.9900   16.1390 C.3   155  ASN155      0.1688
    111  C         18.0380    1.8580   15.8780 C.2   155  ASN155      0.2292
    112  O         18.0560    2.6490   14.9340 O.2   155  ASN155     -0.2864
    113  CB        19.8480    0.4140   14.8440 C.3   155  ASN155      0.1181
    114  CG        21.2850   -0.0400   14.9480 C.2   155  ASN155      0.2629
    115  OD1       22.0710    0.4200   15.7730 O.2   155  ASN155     -0.2716
    116  ND2       21.6990   -0.9670   14.0830 N.am  155  ASN155     -0.0877
    117  N         15.8540    4.6260   17.9850 N.3   157  MET157     -0.1301
    118  CA        15.8170    5.4090   19.2260 C.3   157  MET157      0.1256
    119  C         14.3780    5.8760   19.4520 C.3   157  MET157      0.2010
    120  O         13.8000    6.2540   18.4260 O.3   157  MET157     -0.2188
    121  CB        16.7690    6.6050   19.2100 C.3   157  MET157      0.0333
    122  CG        18.2520    6.2570   19.1930 C.3   157  MET157      0.0592
    123  SD        18.8240    5.4100   20.6750 S.3   157  MET157     -0.1393
    124  CE        18.8170    3.7050   20.1490 C.3   157  MET157      0.0692
    125  N         18.7370    5.1080   13.4990 N.3   168  ILE168     -0.1231
    126  CA        20.1340    5.5160   13.6730 C.3   168  ILE168      0.1692
    127  C         21.0920    4.4560   13.1300 C.2   168  ILE168      0.2592
    128  O         20.6140    3.4550   12.5910 O.2   168  ILE168     -0.2718
    129  CB        20.4640    5.8080   15.1530 C.3   168  ILE168      0.0266
    130  CG1       20.4010    4.5970   16.0870 C.3   168  ILE168      0.0019
    131  CG2       19.5800    6.9230   15.7050 C.3   168  ILE168      0.0020
    132  CD1       21.4580    4.5930   17.1780 C.3   168  ILE168      0.0001
    133  N         22.3820    4.6990   13.2820 N.am  169  ASP169     -0.1974
    134  CA        23.5350    3.9130   12.8900 C.3   169  ASP169      0.1709
    135  C         23.5720    3.4910   11.4210 C.2   169  ASP169      0.2293
    136  O         23.2520    2.3570   11.0490 O.2   169  ASP169     -0.2864
    137  CB        23.6060    2.6780   13.8060 C.3   169  ASP169      0.1436
    138  CG        25.0080    2.0970   13.8530 C.2   169  ASP169      0.3671
    139  OD1       25.3050    1.4380   14.8670 O.co2 169  ASP169     -0.2456
    140  OD2       25.7840    2.2810   12.8890 O.co2 169  ASP169     -0.2456
@<TRIPOS>BOND
     1    60    59    2
     2   136   135    2
     3   135   134    1
     4    57    58    1
     5    59    58    1
     6    62    61    1
     7    58    61    1
     8    72    74   ar
     9    72    70   ar
    10   128   127    2
    11   140   138   ar
    12   134   133    1
    13   134   137    1
    14    74    73   ar
    15   127   133   am
    16   127   126    1
    17    61    63    1
    18    70    69   ar
    19   125   126    1
    20    56    55    1
    21   126   129    1
    22   137   138    1
    23   138   139   ar
    24   116   114   am
    25    83    81   ar
    26    73    71   ar
    27    55    54    1
    28    69    71   ar
    29    69    68    1
    30   113   114    1
    31   113   110    1
    32   112   111    2
    33   114   115    2
    34   129   131    1
    35   129   130    1
    36    81    80    1
    37    81    82   ar
    38    54    53    1
    39    65    68    1
    40    65    64    1
    41    65    66    1
    42    80    79    1
    43   111   110    1
    44   130   132    1
    45   110   109    1
    46    75    66   am
    47    75    76    1
    48    53    52    1
    49    79    76    1
    50    51    50    2
    51    66    67    2
    52    52    49    1
    53   109   101   am
    54    76    77    1
    55    31    32    1
    56    31    28    1
    57    50    49    1
    58    27    28    1
    59    49    48    1
    60   117   118    1
    61    28    29    1
    62    78    77    2
    63   101   102    2
    64   101   100    1
    65   120   119    1
    66    43    42    2
    67    99   100    1
    68    90    88    1
    69   122   121    1
    70   122   123    1
    71   121   118    1
    72   118   119    1
    73    25    26    2
    74    25    24    1
    75   100   103    1
    76   106   104   ar
    77   106   108   ar
    78   103   104    1
    79    29    30    2
    80    42    41    1
    81   104   105   ar
    82    46    44    1
    83    24    23    1
    84    44    41    1
    85    44    45    1
    86   108   107   ar
    87   124   123    1
    88    39    37    1
    89    40    41    1
    90    88    89    1
    91    88    85    1
    92    23    14   am
    93    45    47    1
    94   105   107   ar
    95    38    37    1
    96    84    85    1
    97    37    34    1
    98    15    14    2
    99    14    13    1
   100    85    86    1
   101    34    33    1
   102    34    35    1
   103    97    96    2
   104    13    12    1
   105    13    16    1
   106    86    87    2
   107    12    10   am
   108    96    95    1
   109    96    98   am
   110    35    36    2
   111    95    92    1
   112    16    17    1
   113    21    20    1
   114    10    11    2
   115    10     9    1
   116    18    17    1
   117    18    19    1
   118    92    91    1
   119    92    93    1
   120     9     8    1
   121    20    19    2
   122    20    22    1
   123     7     5    1
   124     8     3   am
   125    93    94    2
   126     3     4    2
   127     3     2    1
   128     5     2    1
   129     5     6    1
   130     2     1    1
