@<TRIPOS>MOLECULE
tmp/1zogA00.pdb
 130 120 0 0 0
SMALL
GASTEIGER

@<TRIPOS>ATOM
      1  N         25.8960    8.0200   26.3850 N.3    39  VAL39      -0.1231
      2  CA        24.5570    7.4410   26.3730 C.3    39  VAL39       0.1692
      3  C         24.4730    6.2050   25.4930 C.2    39  VAL39       0.2593
      4  O         23.3890    5.6790   25.2700 O.2    39  VAL39      -0.2718
      5  CB        23.5090    8.4270   25.8310 C.3    39  VAL39       0.0266
      6  CG1       23.5210    9.7000   26.6430 C.3    39  VAL39       0.0020
      7  CG2       23.7850    8.7100   24.3670 C.3    39  VAL39       0.0020
      8  N         25.6020    5.7450   24.9750 N.am   40  GLY40      -0.1942
      9  CA        25.5650    4.5710   24.1280 C.3    40  GLY40       0.2014
     10  C         26.9110    4.2250   23.5470 C.2    40  GLY40       0.2638
     11  O         27.8630    4.9950   23.6710 O.2    40  GLY40      -0.2714
     12  N         26.9940    3.0670   22.9010 N.am   41  ARG41      -0.1977
     13  CA        28.2530    2.6460   22.3180 C.3    41  ARG41       0.1597
     14  C         28.2400    1.3340   21.5500 C.2    41  ARG41       0.2287
     15  O         27.9580    0.2740   22.1080 O.2    41  ARG41      -0.2864
     16  CB        29.3200    2.5570   23.4090 C.3    41  ARG41       0.0334
     17  CG        28.9840    1.5890   24.5320 C.3    41  ARG41       0.0492
     18  CD        30.1820    1.4110   25.4550 C.3    41  ARG41       0.2205
     19  NE        31.3930    1.1770   24.6720 N.pl3  41  ARG41      -0.0865
     20  CZ        32.4120    2.0280   24.5970 C.cat  41  ARG41       0.5346
     21  NH1       32.3700    3.1700   25.2710 N.pl3  41  ARG41       0.1354
     22  NH2       33.4590    1.7480   23.8290 N.pl3  41  ARG41       0.1354
     23  N         28.8520    6.7870   21.8180 N.3    47  VAL47      -0.1245
     24  CA        27.8650    7.8390   21.6460 C.3    47  VAL47       0.1561
     25  C         27.5970    8.5940   22.9280 C.2    47  VAL47       0.2260
     26  O         27.4160    7.9900   23.9780 O.2    47  VAL47      -0.2867
     27  CB        26.5390    7.2580   21.1120 C.3    47  VAL47       0.0252
     28  CG1       25.5020    8.3720   20.9550 C.3    47  VAL47       0.0019
     29  CG2       26.7920    6.5630   19.7740 C.3    47  VAL47       0.0019
     30  N         23.5340   14.9300   19.6450 N.3    60  ILE60      -0.1245
     31  CA        24.1140   13.6250   19.8800 C.3    60  ILE60       0.1561
     32  C         25.4360   13.5970   19.1410 C.2    60  ILE60       0.2260
     33  O         25.5020   13.8610   17.9380 O.2    60  ILE60      -0.2867
     34  CB        23.1910   12.4980   19.3820 C.3    60  ILE60       0.0252
     35  CG1       21.9880   12.3810   20.3130 C.3    60  ILE60       0.0019
     36  CG2       23.9430   11.1840   19.3470 C.3    60  ILE60       0.0019
     37  CD1       22.3200   11.8020   21.6580 C.3    60  ILE60       0.0001
     38  N         28.4900   11.3880   18.0070 N.3    62  LYS62      -0.1245
     39  CA        28.8730   10.0190   17.7290 C.3    62  LYS62       0.1561
     40  C         30.3390   10.0300   17.3520 C.2    62  LYS62       0.2260
     41  O         30.6930   10.4440   16.2540 O.2    62  LYS62      -0.2867
     42  CB        28.0220    9.4650   16.5770 C.3    62  LYS62       0.0271
     43  CG        28.3650    8.0460   16.1560 C.3    62  LYS62       0.0035
     44  CD        27.4690    7.5920   15.0200 C.3    62  LYS62       0.0206
     45  CE        27.7970    6.1870   14.5680 C.3    62  LYS62       0.1093
     46  NZ        26.8500    5.7420   13.5120 N.3    62  LYS62      -0.1314
     47  N         17.3390   10.0240   10.9850 N.3    89  VAL89      -0.1245
     48  CA        18.1480   10.7730   11.9370 C.3    89  VAL89       0.1561
     49  C         18.8240   11.9190   11.2150 C.2    89  VAL89       0.2260
     50  O         19.5190   11.7140   10.2310 O.2    89  VAL89      -0.2867
     51  CB        19.2290    9.8800   12.6230 C.3    89  VAL89       0.0252
     52  CG1       20.2460    9.3640   11.6060 C.3    89  VAL89       0.0019
     53  CG2       19.9340   10.6800   13.7120 C.3    89  VAL89       0.0019
     54  N         24.5540   14.7020   15.4900 N.3   107  PHE107     -0.1227
     55  CA        23.1750   14.4830   15.0530 C.3   107  PHE107      0.1736
     56  C         22.1690   15.2440   15.9210 C.2   107  PHE107      0.2595
     57  O         22.5190   15.8210   16.9540 O.2   107  PHE107     -0.2718
     58  CB        22.8190   12.9960   15.1070 C.3   107  PHE107      0.0547
     59  CG        23.6170   12.1250   14.1720 C.ar  107  PHE107     -0.0202
     60  CD1       23.2250   11.9500   12.8510 C.ar  107  PHE107     -0.0042
     61  CD2       24.7220   11.4130   14.6350 C.ar  107  PHE107     -0.0042
     62  CE1       23.9220   11.0680   12.0040 C.ar  107  PHE107     -0.0003
     63  CE2       25.4240   10.5290   13.7980 C.ar  107  PHE107     -0.0003
     64  CZ        25.0220   10.3580   12.4850 C.ar  107  PHE107     -0.0000
     65  N         20.9130   15.2400   15.4830 N.am  108  GLU108     -0.1979
     66  CA        19.8410   15.8810   16.2280 C.3   108  GLU108      0.1602
     67  C         19.7200   15.0810   17.5160 C.2   108  GLU108      0.2287
     68  O         20.0640   13.9050   17.5510 O.2   108  GLU108     -0.2864
     69  CB        18.5320   15.7620   15.4620 C.3   108  GLU108      0.0415
     70  CG        18.0070   14.3300   15.4190 C.3   108  GLU108      0.1163
     71  CD        16.7770   14.1610   14.5260 C.2   108  GLU108      0.3649
     72  OE1       16.9320   14.2230   13.2850 O.co2 108  GLU108     -0.2457
     73  OE2       15.6620   13.9600   15.0660 O.co2 108  GLU108     -0.2457
     74  N         17.6970   13.1000   20.4300 N.3   110  VAL110     -0.1245
     75  CA        16.4620   12.3580   20.5990 C.3   110  VAL110      0.1561
     76  C         16.4620   11.8510   22.0290 C.2   110  VAL110      0.2260
     77  O         17.3390   11.0870   22.4240 O.2   110  VAL110     -0.2867
     78  CB        16.3680   11.1360   19.6460 C.3   110  VAL110      0.0252
     79  CG1       15.0390   10.4180   19.8660 C.3   110  VAL110      0.0019
     80  CG2       16.5010   11.5770   18.1950 C.3   110  VAL110      0.0019
     81  N         15.7570    9.5260   23.7490 N.3   112  ASN112     -0.1240
     82  CA        15.4040    8.1230   23.5900 C.3   112  ASN112      0.1653
     83  C         15.2280    7.3530   24.8820 C.2   112  ASN112      0.2266
     84  O         15.8220    7.6760   25.9080 O.2   112  ASN112     -0.2867
     85  CB        16.4620    7.4080   22.7440 C.3   112  ASN112      0.1155
     86  CG        16.2170    5.9030   22.6390 C.2   112  ASN112      0.2627
     87  OD1       15.3000    5.4510   21.9390 O.2   112  ASN112     -0.2716
     88  ND2       17.0340    5.1200   23.3440 N.am  112  ASN112     -0.0877
     89  N         15.6120    3.4920   25.8070 N.3   114  ASP114     -0.1239
     90  CA        16.0790    2.1880   25.3380 C.3   114  ASP114      0.1674
     91  C         14.8830    1.2680   25.1650 C.2   114  ASP114      0.2266
     92  O         13.9730    1.2770   25.9880 O.2   114  ASP114     -0.2867
     93  CB        17.0550    1.5820   26.3490 C.3   114  ASP114      0.1410
     94  CG        17.6570    0.2860   25.8640 C.2   114  ASP114      0.3668
     95  OD1       18.4800    0.3310   24.9270 O.co2 114  ASP114     -0.2456
     96  OD2       17.2980   -0.7780   26.4110 O.co2 114  ASP114     -0.2456
     97  N         17.8250   -1.2410   18.4940 N.3   154  HIS154     -0.1241
     98  CA        18.9930   -0.4440   18.8450 C.3   154  HIS154      0.1621
     99  C         19.1670    0.7210   17.8750 C.2   154  HIS154      0.2264
    100  O         19.6720    1.7780   18.2550 O.2   154  HIS154     -0.2867
    101  CB        20.2640   -1.3200   18.8220 C.3   154  HIS154      0.0745
    102  CG        20.0620   -2.7010   19.3690 C.ar  154  HIS154      0.0817
    103  ND1       19.1750   -3.6000   18.8110 N.ar  154  HIS154     -0.2268
    104  CD2       20.6270   -3.3370   20.4230 C.ar  154  HIS154      0.1154
    105  CE1       19.2030   -4.7290   19.4980 C.ar  154  HIS154      0.1986
    106  NE2       20.0770   -4.5960   20.4820 N.ar  154  HIS154     -0.2212
    107  N         15.6850    5.0200   17.4160 N.3   157  MET157     -0.1245
    108  CA        15.6020    5.8620   18.5940 C.3   157  MET157      0.1570
    109  C         14.1570    6.2890   18.7390 C.2   157  MET157      0.2261
    110  O         13.4920    6.6130   17.7510 O.2   157  MET157     -0.2867
    111  CB        16.4970    7.0830   18.4420 C.3   157  MET157      0.0387
    112  CG        17.9680    6.7540   18.5510 C.3   157  MET157      0.0595
    113  SD        18.3480    5.9440   20.1180 S.3   157  MET157     -0.1393
    114  CE        18.1670    4.1820   19.7100 C.3   157  MET157      0.0692
    115  N         18.2580    5.2580   13.0770 N.3   168  ILE168     -0.1231
    116  CA        19.6390    5.6940   13.2080 C.3   168  ILE168      0.1692
    117  C         20.6640    4.6860   12.7350 C.2   168  ILE168      0.2592
    118  O         20.3300    3.5940   12.3000 O.2   168  ILE168     -0.2718
    119  CB        20.0000    6.0210   14.6710 C.3   168  ILE168      0.0266
    120  CG1       19.8740    4.7450   15.5090 C.3   168  ILE168      0.0019
    121  CG2       19.1210    7.1610   15.2030 C.3   168  ILE168      0.0020
    122  CD1       20.6700    4.7630   16.7760 C.3   168  ILE168      0.0001
    123  N         21.9230    5.0990   12.8460 N.am  169  ASP169     -0.1974
    124  CA        23.0890    4.3150   12.5000 C.3   169  ASP169      0.1709
    125  C         23.1250    3.8220   11.0640 C.2   169  ASP169      0.2293
    126  O         22.8710    2.6540   10.7840 O.2   169  ASP169     -0.2864
    127  CB        23.2210    3.1310   13.4580 C.3   169  ASP169      0.1436
    128  CG        24.6080    2.5270   13.4310 C.2   169  ASP169      0.3671
    129  OD1       25.5690    3.2920   13.6230 O.co2 169  ASP169     -0.2456
    130  OD2       24.7470    1.3020   13.2200 O.co2 169  ASP169     -0.2456
@<TRIPOS>BOND
     1    50    49    2
     2   126   125    2
     3    47    48    1
     4   125   124    1
     5    49    48    1
     6    52    51    1
     7    48    51    1
     8    62    64   ar
     9    62    60   ar
    10   118   117    2
    11    64    63   ar
    12   124   123    1
    13   124   127    1
    14    51    53    1
    15   117   123   am
    16   117   116    1
    17    60    59   ar
    18   115   116    1
    19   116   119    1
    20   130   128   ar
    21    72    71   ar
    22   128   127    1
    23   128   129   ar
    24    46    45    1
    25    63    61   ar
    26    59    61   ar
    27    59    58    1
    28    71    73   ar
    29    71    70    1
    30    45    44    1
    31   119   121    1
    32   119   120    1
    33    44    43    1
    34    55    58    1
    35    55    54    1
    36    55    56    1
    37    70    69    1
    38    69    66    1
    39    65    56   am
    40    65    66    1
    41   120   122    1
    42    56    57    2
    43    43    42    1
    44    66    67    1
    45    41    40    2
    46    42    39    1
    47    40    39    1
    48   107   108    1
    49    67    68    2
    50    39    38    1
    51   110   109    2
    52    99   100    2
    53    99    98    1
    54    33    32    2
    55    80    78    1
    56   111   112    1
    57   111   108    1
    58    97    98    1
    59   112   113    1
    60   108   109    1
    61   103   102   ar
    62   103   105   ar
    63   101    98    1
    64   101   102    1
    65    32    31    1
    66    36    34    1
    67   102   104   ar
    68    34    31    1
    69    34    35    1
    70   105   106   ar
    71    30    31    1
    72    78    79    1
    73    78    75    1
    74   114   113    1
    75    29    27    1
    76    35    37    1
    77   104   106   ar
    78    74    75    1
    79    75    76    1
    80    28    27    1
    81    27    24    1
    82    14    15    2
    83    14    13    1
    84    24    23    1
    85    24    25    1
    86    87    86    2
    87    76    77    2
    88    13    12    1
    89    13    16    1
    90    86    85    1
    91    86    88   am
    92    85    82    1
    93    12    10   am
    94    25    26    2
    95    16    17    1
    96    10    11    2
    97    10     9    1
    98    82    81    1
    99    82    83    1
   100    22    20    1
   101     9     8    1
   102     7     5    1
   103    17    18    1
   104    20    19    2
   105    20    21    1
   106    19    18    1
   107    83    84    2
   108    95    94   ar
   109     8     3   am
   110    91    90    1
   111    91    92    2
   112     4     3    2
   113    90    89    1
   114    90    93    1
   115     3     2    1
   116     5     2    1
   117     5     6    1
   118    94    93    1
   119    94    96   ar
   120     2     1    1
