@<TRIPOS>MOLECULE
tmp/1zohA00.pdb
 123 116 0 0 0
SMALL
GASTEIGER

@<TRIPOS>ATOM
      1  N         27.5270    7.0830   26.3720 N.3    40  VAL40      -0.1231
      2  CA        26.2740    6.3340   26.4720 C.3    40  VAL40       0.1696
      3  C         26.3540    5.0040   25.7270 C.2    40  VAL40       0.2631
      4  O         25.4570    4.1650   25.8670 O.2    40  VAL40      -0.2714
      5  CB        25.0890    7.1610   25.9480 C.3    40  VAL40       0.0266
      6  CG1       24.9130    8.4450   26.7440 C.3    40  VAL40       0.0020
      7  CG2       25.2780    7.4670   24.4700 C.3    40  VAL40       0.0020
      8  N         27.4100    4.7720   24.9470 N.am   41  GLY41      -0.1732
      9  CA        27.6160    3.4770   24.3110 C.2    41  GLY41       0.1340
     10  C         29.0110    3.2310   23.7840 C.2    41  GLY41       0.2521
     11  O         29.8200    4.1520   23.6540 O.2    41  GLY41      -0.2816
     12  N         30.2110    6.2260   21.7570 N.3    48  VAL48      -0.1245
     13  CA        29.1460    7.2140   21.5900 C.3    48  VAL48       0.1561
     14  C         28.9030    8.0320   22.8550 C.2    48  VAL48       0.2260
     15  O         28.8380    7.4660   23.9450 O.2    48  VAL48      -0.2867
     16  CB        27.8040    6.5600   21.2040 C.3    48  VAL48       0.0252
     17  CG1       26.7430    7.6280   20.9630 C.3    48  VAL48       0.0019
     18  CG2       27.9540    5.6720   19.9750 C.3    48  VAL48       0.0019
     19  N         24.5010   14.1950   19.9290 N.3    61  ILE61      -0.1245
     20  CA        25.1520   12.9030   20.1180 C.3    61  ILE61       0.1561
     21  C         26.4780   12.9380   19.3600 C.2    61  ILE61       0.2260
     22  O         26.5770   13.3800   18.2130 O.2    61  ILE61      -0.2867
     23  CB        24.2670   11.7320   19.6570 C.3    61  ILE61       0.0252
     24  CG1       23.1100   11.4070   20.6050 C.3    61  ILE61       0.0019
     25  CG2       25.0980   10.4830   19.3630 C.3    61  ILE61       0.0019
     26  CD1       23.5240   10.7700   21.9070 C.3    61  ILE61       0.0001
     27  N         29.6710   10.6710   18.0390 N.3    63  LYS63      -0.1245
     28  CA        30.1930    9.3330   17.8040 C.3    63  LYS63       0.1561
     29  C         31.6790    9.4470   17.4710 C.2    63  LYS63       0.2260
     30  O         31.9630    9.9700   16.3860 O.2    63  LYS63      -0.2867
     31  CB        29.5200    8.6330   16.6320 C.3    63  LYS63       0.0271
     32  CG        28.0760    8.2080   16.8510 C.3    63  LYS63       0.0035
     33  CD        27.6560    7.2910   15.7000 C.3    63  LYS63       0.0206
     34  CE        28.4460    5.9980   15.6970 C.3    63  LYS63       0.1093
     35  NZ        27.6220    4.8500   15.2100 N.3    63  LYS63      -0.1314
     36  N         17.9400    9.7380   11.3100 N.3    90  VAL90      -0.1245
     37  CA        18.7530   10.5530   12.2220 C.3    90  VAL90       0.1561
     38  C         19.3840   11.7180   11.4770 C.2    90  VAL90       0.2260
     39  O         19.7870   11.5550   10.3280 O.2    90  VAL90      -0.2867
     40  CB        19.8330    9.6980   12.9050 C.3    90  VAL90       0.0252
     41  CG1       20.8820    9.2470   11.9090 C.3    90  VAL90       0.0019
     42  CG2       20.4510   10.4730   14.0770 C.3    90  VAL90       0.0019
     43  N         25.4060   14.1300   15.7430 N.3   108  PHE108     -0.1227
     44  CA        24.0060   13.9500   15.3860 C.3   108  PHE108      0.1736
     45  C         23.0370   14.6760   16.3180 C.2   108  PHE108      0.2595
     46  O         23.3830   14.9700   17.4560 O.2   108  PHE108     -0.2718
     47  CB        23.5930   12.4760   15.4440 C.3   108  PHE108      0.0547
     48  CG        24.4020   11.5910   14.5310 C.ar  108  PHE108     -0.0202
     49  CD1       24.0190   11.4180   13.2100 C.ar  108  PHE108     -0.0042
     50  CD2       25.5210   10.9410   15.0180 C.ar  108  PHE108     -0.0042
     51  CE1       24.7530   10.5940   12.3750 C.ar  108  PHE108     -0.0003
     52  CE2       26.2720   10.1390   14.1770 C.ar  108  PHE108     -0.0003
     53  CZ        25.8890    9.9670   12.8610 C.ar  108  PHE108     -0.0000
     54  N         21.8340   14.8990   15.7990 N.am  109  GLU109     -0.1965
     55  CA        20.7520   15.4250   16.6230 C.3   109  GLU109      0.1733
     56  C         20.5250   14.4760   17.7920 C.2   109  GLU109      0.2616
     57  O         20.6660   13.2630   17.6190 O.2   109  GLU109     -0.2715
     58  CB        19.4840   15.6080   15.7870 C.3   109  GLU109      0.0429
     59  CG        18.4580   16.5360   16.4000 C.3   109  GLU109      0.1163
     60  CD        17.7460   17.4630   15.4410 C.2   109  GLU109      0.3649
     61  OE1       18.1720   18.6330   15.2930 O.co2 109  GLU109     -0.2457
     62  OE2       16.7410   17.0500   14.8210 O.co2 109  GLU109     -0.2457
     63  N         20.1670   14.9930   18.9650 N.am  110  TYR110     -0.1960
     64  CA        19.9210   14.1530   20.1350 C.3   110  TYR110      0.1771
     65  C         18.4800   13.6400   20.1530 C.2   110  TYR110      0.2619
     66  O         17.5560   14.3650   19.7700 O.2   110  TYR110     -0.2715
     67  CB        20.2300   14.9300   21.4350 C.3   110  TYR110      0.0574
     68  CG        19.8630   14.2030   22.7130 C.ar  110  TYR110     -0.0198
     69  CD1       20.7720   13.3350   23.2960 C.ar  110  TYR110     -0.0009
     70  CD2       18.6420   14.3770   23.3550 C.ar  110  TYR110     -0.0009
     71  CE1       20.4990   12.6490   24.4620 C.ar  110  TYR110      0.0417
     72  CE2       18.3550   13.6870   24.5210 C.ar  110  TYR110      0.0417
     73  CZ        19.2750   12.8290   25.0740 C.ar  110  TYR110      0.1957
     74  OH        19.0040   12.1380   26.2300 O.3   110  TYR110     -0.2866
     75  N         18.3310   12.4160   20.6440 N.am  111  VAL111     -0.1977
     76  CA        17.0980   11.7090   20.9130 C.3   111  VAL111      0.1596
     77  C         17.1320   11.1500   22.3390 C.2   111  VAL111      0.2287
     78  O         18.0580   10.4230   22.7070 O.2   111  VAL111     -0.2864
     79  CB        16.8420   10.5410   19.9440 C.3   111  VAL111      0.0276
     80  CG1       15.4980    9.8910   20.2450 C.3   111  VAL111      0.0022
     81  CG2       16.8980   11.0280   18.5050 C.3   111  VAL111      0.0022
     82  N         16.3600    8.5900   24.1340 N.3   113  ASN113     -0.1240
     83  CA        15.9980    7.1870   23.9380 C.3   113  ASN113      0.1653
     84  C         15.8370    6.3490   25.1980 C.2   113  ASN113      0.2266
     85  O         16.4510    6.6080   26.2410 O.2   113  ASN113     -0.2867
     86  CB        17.1020    6.5510   23.0770 C.3   113  ASN113      0.1155
     87  CG        16.8650    5.0930   22.7570 C.2   113  ASN113      0.2627
     88  OD1       15.8720    4.7490   22.1000 O.2   113  ASN113     -0.2716
     89  ND2       17.7790    4.2440   23.2300 N.am  113  ASN113     -0.0877
     90  N         18.3590   -1.9310   18.3310 N.3   155  HIS155     -0.1241
     91  CA        19.5040   -1.1750   18.8180 C.3   155  HIS155      0.1621
     92  C         19.7620    0.0430   17.9420 C.2   155  HIS155      0.2264
     93  O         20.4210    0.9970   18.3660 O.2   155  HIS155     -0.2867
     94  CB        20.7830   -2.0070   18.9110 C.3   155  HIS155      0.0745
     95  CG        21.0080   -2.6870   20.2260 C.ar  155  HIS155      0.0817
     96  ND1       20.5270   -2.2180   21.4250 N.ar  155  HIS155     -0.2268
     97  CD2       21.6820   -3.8210   20.5300 C.ar  155  HIS155      0.1154
     98  CE1       20.8860   -3.0250   22.4060 C.ar  155  HIS155      0.1986
     99  NE2       21.5910   -4.0120   21.8890 N.ar  155  HIS155     -0.2212
    100  N         16.0620    4.5890   17.5610 N.3   158  MET158     -0.1245
    101  CA        15.9970    5.3860   18.7870 C.3   158  MET158      0.1570
    102  C         14.5720    5.8310   19.0330 C.2   158  MET158      0.2261
    103  O         13.9420    6.3120   18.0980 O.2   158  MET158     -0.2867
    104  CB        16.9520    6.5900   18.6960 C.3   158  MET158      0.0387
    105  CG        18.4090    6.1440   18.6020 C.3   158  MET158      0.0595
    106  SD        19.0340    5.4350   20.1350 S.3   158  MET158     -0.1393
    107  CE        19.1290    3.6960   19.7370 C.3   158  MET158      0.0692
    108  N         18.9240    5.0400   13.0900 N.3   169  ILE169     -0.1231
    109  CA        20.3140    5.4620   13.2110 C.3   169  ILE169      0.1692
    110  C         21.2990    4.4290   12.6840 C.2   169  ILE169      0.2592
    111  O         20.9060    3.3870   12.1930 O.2   169  ILE169     -0.2718
    112  CB        20.6310    5.7740   14.6960 C.3   169  ILE169      0.0266
    113  CG1       20.6450    4.5560   15.6210 C.3   169  ILE169      0.0019
    114  CG2       19.6710    6.8150   15.2590 C.3   169  ILE169      0.0020
    115  CD1       21.5130    4.7030   16.8620 C.3   169  ILE169      0.0001
    116  N         22.5930    4.7310   12.7990 N.am  170  ASP170     -0.1974
    117  CA        23.7380    3.9180   12.4510 C.3   170  ASP170      0.1709
    118  C         23.6840    3.3620   11.0180 C.2   170  ASP170      0.2293
    119  O         23.3940    2.2000   10.7630 O.2   170  ASP170     -0.2864
    120  CB        23.9150    2.8010   13.4870 C.3   170  ASP170      0.1436
    121  CG        24.5790    3.3090   14.7600 C.2   170  ASP170      0.3671
    122  OD1       24.7880    4.5380   14.9320 O.co2 170  ASP170     -0.2456
    123  OD2       24.8920    2.4640   15.6390 O.co2 170  ASP170     -0.2456
@<TRIPOS>BOND
     1    39    38    2
     2   119   118    2
     3   118   117    1
     4    36    37    1
     5    38    37    1
     6    41    40    1
     7   111   110    2
     8    37    40    1
     9    51    53   ar
    10    51    49   ar
    11   117   116    1
    12   117   120    1
    13   110   116   am
    14   110   109    1
    15    53    52   ar
    16    40    42    1
    17   108   109    1
    18    49    48   ar
    19   109   112    1
    20   120   121    1
    21    52    50   ar
    22    48    50   ar
    23    48    47    1
    24   112   114    1
    25   112   113    1
    26   121   122   ar
    27   121   123   ar
    28    62    60   ar
    29    35    34    1
    30    61    60   ar
    31    44    47    1
    32    44    43    1
    33    44    45    1
    34    60    59    1
    35   113   115    1
    36    34    33    1
    37    33    32    1
    38    58    59    1
    39    58    55    1
    40    54    45   am
    41    54    55    1
    42    45    46    2
    43    30    29    2
    44    55    56    1
    45    31    32    1
    46    31    28    1
    47    29    28    1
    48   100   101    1
    49    57    56    2
    50    56    63   am
    51    28    27    1
    52    92    93    2
    53    92    91    1
    54   103   102    2
    55    22    21    2
    56    90    91    1
    57    81    79    1
    58   105   104    1
    59   105   106    1
    60   104   101    1
    61   101   102    1
    62    91    94    1
    63    94    95    1
    64    63    64    1
    65    21    20    1
    66    25    23    1
    67    23    20    1
    68    23    24    1
    69   107   106    1
    70    66    65    2
    71    19    20    1
    72    79    80    1
    73    79    76    1
    74    18    16    1
    75    64    65    1
    76    64    67    1
    77    65    75   am
    78    95    97   ar
    79    95    96   ar
    80    97    99   ar
    81    24    26    1
    82    75    76    1
    83    76    77    1
    84    17    16    1
    85    16    13    1
    86    96    98   ar
    87    67    68    1
    88    13    12    1
    89    13    14    1
    90    99    98   ar
    91    88    87    2
    92    77    78    2
    93    68    69   ar
    94    68    70   ar
    95    87    86    1
    96    87    89   am
    97    14    15    2
    98    86    83    1
    99    69    71   ar
   100    70    72   ar
   101    11    10    2
   102    10     9    1
   103    83    82    1
   104    83    84    1
   105     9     8    2
   106    71    73   ar
   107     7     5    1
   108    72    73   ar
   109     8     3    1
   110    73    74    1
   111    84    85    2
   112     3     4    2
   113     3     2    1
   114     5     2    1
   115     5     6    1
   116     1     2    1
