@<TRIPOS>MOLECULE
tmp/1zomA00.pdb
 216 214 0 0 0
SMALL
GASTEIGER

@<TRIPOS>ATOM
      1  N          6.5010   53.3510   32.9730 N.3    28  LEU28      -0.1231
      2  CA         7.8650   53.5710   32.5260 C.3    28  LEU28       0.1693
      3  C          8.3430   52.4680   31.5890 C.2    28  LEU28       0.2592
      4  O          8.8310   52.7310   30.4890 O.2    28  LEU28      -0.2718
      5  CB         8.8070   53.6230   33.7360 C.3    28  LEU28       0.0284
      6  CG        10.3040   53.7430   33.4320 C.3    28  LEU28       0.0019
      7  CD1       10.5920   55.0730   32.7530 C.3    28  LEU28       0.0001
      8  CD2       11.0910   53.6250   34.7180 C.3    28  LEU28       0.0001
      9  N          8.1860   51.2250   32.0300 N.am   29  CYS29      -0.1970
     10  CA         8.6540   50.0860   31.2630 C.3    29  CYS29       0.1712
     11  C          7.8800   48.8130   31.5800 C.2    29  CYS29       0.2296
     12  O          7.0820   48.7670   32.5180 O.2    29  CYS29      -0.2864
     13  CB        10.1360   49.8710   31.5970 C.3    29  CYS29       0.0983
     14  SG        11.2140   51.0100   30.6770 S.3    29  CYS29      -0.0798
     15  N         18.4210   49.8640   30.3660 N.3    44  HIS44      -0.1226
     16  CA        18.3080   51.2250   29.8450 C.3    44  HIS44       0.1752
     17  C         16.9770   51.8560   30.3050 C.2    44  HIS44       0.2596
     18  O         16.7000   53.0350   30.0280 O.2    44  HIS44      -0.2718
     19  CB        18.3160   51.1600   28.3410 C.3    44  HIS44       0.0759
     20  CG        16.9780   50.9000   27.7760 C.ar   44  HIS44       0.0818
     21  ND1       16.5860   49.6560   27.2870 N.ar   44  HIS44      -0.2268
     22  CD2       15.9000   51.6870   27.6840 C.ar   44  HIS44       0.1154
     23  CE1       15.3290   49.7220   26.8980 C.ar   44  HIS44       0.1986
     24  NE2       14.8920   50.9410   27.1280 N.ar   44  HIS44      -0.2212
     25  N         16.1540   51.0780   30.9700 N.am   45  CYS45      -0.1970
     26  CA        14.8670   51.5650   31.4420 C.3    45  CYS45       0.1712
     27  C         15.0310   52.4320   32.6940 C.2    45  CYS45       0.2296
     28  O         14.0800   53.0730   33.1640 O.2    45  CYS45      -0.2864
     29  CB        13.9600   50.3750   31.7560 C.3    45  CYS45       0.0983
     30  SG        12.8990   49.9250   30.3730 S.3    45  CYS45      -0.0798
     31  N         21.5430   50.2880   25.4280 N.3    88  ALA88      -0.1231
     32  CA        20.7530   49.2720   24.7510 C.3    88  ALA88       0.1694
     33  C         21.4050   48.6940   23.4970 C.2    88  ALA88       0.2591
     34  O         21.6080   47.4820   23.3980 O.2    88  ALA88      -0.2718
     35  CB        19.3820   49.8450   24.4030 C.3    88  ALA88       0.0304
     36  N         21.7390   49.5610   22.5450 N.am   89  GLU89      -0.1979
     37  CA        22.3190   49.1240   21.2810 C.3    89  GLU89       0.1602
     38  C         23.6600   48.4020   21.3710 C.2    89  GLU89       0.2287
     39  O         24.0940   47.7960   20.3970 O.2    89  GLU89      -0.2864
     40  CB        22.4350   50.3160   20.3340 C.3    89  GLU89       0.0415
     41  CG        21.1080   51.0090   20.0650 C.3    89  GLU89       0.1163
     42  CD        21.2930   52.4090   19.5320 C.2    89  GLU89       0.3649
     43  OE1       21.6020   52.5480   18.3240 O.co2  89  GLU89      -0.2457
     44  OE2       21.1460   53.3630   20.3280 O.co2  89  GLU89      -0.2457
     45  N          3.9570   52.1160   22.6190 N.3   134  TYR134     -0.1241
     46  CA         3.3270   52.8660   21.5380 C.3   134  TYR134      0.1605
     47  C          2.7810   51.9860   20.4250 C.2   134  TYR134      0.2264
     48  O          3.4080   51.0060   20.0230 O.2   134  TYR134     -0.2867
     49  CB         4.3260   53.8500   20.9270 C.3   134  TYR134      0.0534
     50  CG         4.5980   55.0380   21.8000 C.ar  134  TYR134     -0.0201
     51  CD1        4.1650   55.0550   23.1110 C.ar  134  TYR134     -0.0009
     52  CD2        5.2950   56.1360   21.3240 C.ar  134  TYR134     -0.0009
     53  CE1        4.4120   56.1180   23.9190 C.ar  134  TYR134      0.0417
     54  CE2        5.5480   57.2160   22.1410 C.ar  134  TYR134      0.0417
     55  CZ         5.1000   57.1960   23.4300 C.ar  134  TYR134      0.1957
     56  OH         5.3260   58.2770   24.2350 O.3   134  TYR134     -0.2866
     57  N          4.9100   55.4520   16.3610 N.3   137  LEU137     -0.1245
     58  CA         5.9550   56.3730   16.8040 C.3   137  LEU137      0.1561
     59  C          5.4600   57.5470   17.6160 C.2   137  LEU137      0.2260
     60  O          5.9640   57.7910   18.7100 O.2   137  LEU137     -0.2867
     61  CB         6.7510   56.9170   15.6230 C.3   137  LEU137      0.0270
     62  CG         8.0100   56.1550   15.2680 C.3   137  LEU137      0.0019
     63  CD1        8.9980   57.1160   14.6040 C.3   137  LEU137      0.0001
     64  CD2        8.5900   55.5820   16.5490 C.3   137  LEU137      0.0001
     65  N         20.8340   45.5580   10.2120 N.3   162  TYR162     -0.1241
     66  CA        21.4740   46.5900   11.0180 C.3   162  TYR162      0.1605
     67  C         22.9630   46.6330   10.7140 C.2   162  TYR162      0.2264
     68  O         23.7790   46.0840   11.4660 O.2   162  TYR162     -0.2867
     69  CB        21.2590   46.3160   12.5110 C.3   162  TYR162      0.0534
     70  CG        19.8360   46.5270   12.9740 C.ar  162  TYR162     -0.0201
     71  CD1       18.9290   45.4720   13.0380 C.ar  162  TYR162     -0.0009
     72  CD2       19.3800   47.7940   13.2740 C.ar  162  TYR162     -0.0009
     73  CE1       17.6060   45.6890   13.3830 C.ar  162  TYR162      0.0417
     74  CE2       18.0720   48.0170   13.6120 C.ar  162  TYR162      0.0417
     75  CZ        17.1880   46.9700   13.6650 C.ar  162  TYR162      0.1957
     76  OH        15.8740   47.2250   13.9890 O.3   162  TYR162     -0.2866
     77  N         25.3740   48.5570   13.0180 N.3   165  HIS165     -0.1241
     78  CA        25.3510   47.9900   14.3650 C.3   165  HIS165      0.1621
     79  C         26.0520   46.6550   14.4620 C.2   165  HIS165      0.2264
     80  O         26.3650   46.0190   13.4630 O.2   165  HIS165     -0.2867
     81  CB        23.9090   47.8010   14.8610 C.3   165  HIS165      0.0745
     82  CG        23.2720   49.0600   15.3400 C.ar  165  HIS165      0.0817
     83  ND1       22.6280   49.9340   14.4940 N.ar  165  HIS165     -0.2268
     84  CD2       23.2420   49.6300   16.5700 C.ar  165  HIS165      0.1154
     85  CE1       22.2340   50.9870   15.1830 C.ar  165  HIS165      0.1986
     86  NE2       22.5940   50.8290   16.4440 N.ar  165  HIS165     -0.2212
     87  N          5.5400   44.7660   15.8450 N.3   182  ASP182     -0.1225
     88  CA         6.8060   44.9630   16.5330 C.3   182  ASP182      0.1805
     89  C          6.5550   45.6700   17.8620 C.2   182  ASP182      0.2598
     90  O          5.4550   46.1580   18.1230 O.2   182  ASP182     -0.2718
     91  CB         7.6900   45.8180   15.6110 C.3   182  ASP182      0.1424
     92  CG         9.1100   46.0000   16.1150 C.2   182  ASP182      0.3668
     93  OD1        9.5910   45.2150   16.9550 O.co2 182  ASP182     -0.2456
     94  OD2        9.7630   46.9420   15.6240 O.co2 182  ASP182     -0.2456
     95  N          7.5790   45.7080   18.7080 N.am  183  ALA183     -0.1966
     96  CA         7.4800   46.3880   19.9870 C.3   183  ALA183      0.1728
     97  C          7.7130   47.8540   19.6700 C.2   183  ALA183      0.2616
     98  O          8.1920   48.1840   18.5810 O.2   183  ALA183     -0.2715
     99  CB         8.5640   45.8790   20.9360 C.3   183  ALA183      0.0334
    100  N          7.3760   48.7390   20.5990 N.am  184  CYS184     -0.1954
    101  CA         7.6090   50.1570   20.3680 C.3   184  CYS184      0.1843
    102  C          7.8650   50.8410   21.7050 C.2   184  CYS184      0.2625
    103  O          7.9780   50.1720   22.7270 O.2   184  CYS184     -0.2714
    104  CB         6.4270   50.7880   19.6230 C.3   184  CYS184      0.0997
    105  SG         6.8320   52.3400   18.7390 S.3   184  CYS184     -0.0797
    106  N          7.9600   52.1670   21.7030 N.am  185  LYS185     -0.1963
    107  CA         8.2630   52.9040   22.9270 C.3   185  LYS185      0.1728
    108  C          7.3080   52.5890   24.0600 C.2   185  LYS185      0.2617
    109  O          6.0980   52.7430   23.9150 O.2   185  LYS185     -0.2715
    110  CB         8.2580   54.4060   22.6470 C.3   185  LYS185      0.0311
    111  CG         9.0160   54.7790   21.3740 C.3   185  LYS185      0.0038
    112  CD        10.3580   54.0520   21.2900 C.3   185  LYS185      0.0206
    113  CE        11.1660   54.5090   20.0740 C.3   185  LYS185      0.1093
    114  NZ        12.5660   54.0090   20.1270 N.3   185  LYS185     -0.1314
    115  N          7.8570   52.1600   25.1950 N.am  186  GLY186     -0.1940
    116  CA         7.0190   51.8300   26.3350 C.3   186  GLY186      0.2014
    117  C          6.9630   50.3360   26.5720 C.2   186  GLY186      0.2639
    118  O          6.6030   49.8920   27.6630 O.2   186  GLY186     -0.2714
    119  N          7.3210   49.5570   25.5530 N.am  187  ASP187     -0.1957
    120  CA         7.3270   48.1040   25.6740 C.3   187  ASP187      0.1840
    121  C          8.6650   47.6070   26.2200 C.2   187  ASP187      0.2622
    122  O          8.7870   46.4450   26.6130 O.2   187  ASP187     -0.2715
    123  CB         7.0410   47.4420   24.3210 C.3   187  ASP187      0.1450
    124  CG         5.6320   47.7140   23.8210 C.2   187  ASP187      0.3671
    125  OD1        4.6690   47.5560   24.6090 O.co2 187  ASP187     -0.2456
    126  OD2        5.4880   48.0770   22.6330 O.co2 187  ASP187     -0.2456
    127  N          9.6530   48.5020   26.2380 N.am  188  SER188     -0.1950
    128  CA        11.0070   48.2370   26.7410 C.3   188  SER188      0.1924
    129  C         10.9410   47.5070   28.0860 C.2   188  SER188      0.2314
    130  O         10.1710   47.9020   28.9600 O.2   188  SER188     -0.2863
    131  CB        11.7690   49.5820   26.9290 C.3   188  SER188      0.2116
    132  OG        12.3410   50.1210   25.7300 O.3   188  SER188     -0.2180
    133  N         12.4990   43.0650   25.5720 N.3   206  THR206     -0.1203
    134  CA        12.3630   44.1580   24.6180 C.3   206  THR206      0.1994
    135  C         13.4320   45.2010   24.8930 C.2   206  THR206      0.2619
    136  O         13.4940   45.7690   25.9830 O.2   206  THR206     -0.2717
    137  CB        10.9700   44.7730   24.7150 C.3   206  THR206      0.1784
    138  OG1        9.9900   43.7500   24.4850 O.3   206  THR206     -0.2211
    139  CG2       10.7980   45.8670   23.6790 C.3   206  THR206      0.0376
    140  N         14.2740   45.4600   23.8950 N.am  207  SER207     -0.1937
    141  CA        15.3880   46.3870   24.0670 C.3   207  SER207      0.2055
    142  C         15.4140   47.5780   23.1070 C.2   207  SER207      0.2643
    143  O         15.2950   48.7230   23.5330 O.2   207  SER207     -0.2714
    144  CB        16.7030   45.6000   23.9650 C.3   207  SER207      0.2130
    145  OG        17.8280   46.4210   24.2320 O.3   207  SER207     -0.2179
    146  N         15.5800   47.3300   21.8150 N.am  208  TRP208     -0.1959
    147  CA        15.6140   48.4400   20.8670 C.3   208  TRP208      0.1771
    148  C         15.2850   48.0500   19.4390 C.2   208  TRP208      0.2620
    149  O         14.9900   46.8960   19.1500 O.2   208  TRP208     -0.2715
    150  CB        16.9840   49.1210   20.8740 C.3   208  TRP208      0.0590
    151  CG        18.1260   48.2300   20.4500 C.ar  208  TRP208      0.0006
    152  CD1       18.7720   47.2980   21.2190 C.ar  208  TRP208      0.0946
    153  CD2       18.7750   48.2130   19.1710 C.ar  208  TRP208      0.0152
    154  NE1       19.7870   46.7120   20.4980 N.ar  208  TRP208     -0.2442
    155  CE2       19.8080   47.2550   19.2390 C.ar  208  TRP208      0.0810
    156  CE3       18.5820   48.9160   17.9740 C.ar  208  TRP208      0.0012
    157  CZ2       20.6490   46.9810   18.1560 C.ar  208  TRP208      0.0191
    158  CZ3       19.4190   48.6430   16.8980 C.ar  208  TRP208      0.0001
    159  CH2       20.4410   47.6840   17.0000 C.ar  208  TRP208      0.0015
    160  N         15.3480   49.0420   18.5530 N.am  209  GLY209     -0.1940
    161  CA        15.0710   48.8300   17.1450 C.3   209  GLY209      0.2014
    162  C         15.0390   50.1630   16.4180 C.2   209  GLY209      0.2639
    163  O         14.8640   51.2120   17.0380 O.2   209  GLY209     -0.2714
    164  N         15.2270   50.1460   15.1060 N.am  210  GLU210     -0.1963
    165  CA        15.1790   51.3920   14.3590 C.3   210  GLU210      0.1733
    166  C         13.7090   51.7020   14.1170 C.2   210  GLU210      0.2617
    167  O         13.0600   51.0630   13.2900 O.2   210  GLU210     -0.2715
    168  CB        15.9090   51.2680   13.0190 C.3   210  GLU210      0.0429
    169  CG        15.8420   52.5520   12.2210 C.3   210  GLU210      0.1163
    170  CD        16.4620   53.7180   12.9680 C.2   210  GLU210      0.3649
    171  OE1       17.6720   53.6900   13.1350 O.co2 210  GLU210     -0.2457
    172  OE2       15.7600   54.6620   13.3940 O.co2 210  GLU210     -0.2457
    173  N         13.1820   52.6800   14.8410 N.am  211  GLY211     -0.1940
    174  CA        11.7780   53.0110   14.6850 C.3   211  GLY211      0.2014
    175  C         10.9270   51.8700   15.2280 C.2   211  GLY211      0.2639
    176  O         11.3450   51.1470   16.1400 O.2   211  GLY211     -0.2714
    177  N          9.7370   51.6980   14.6650 N.am  212  CYS212     -0.1967
    178  CA         8.8400   50.6370   15.1030 C.3   212  CYS212      0.1712
    179  C          8.1220   49.9960   13.9290 C.2   212  CYS212      0.2296
    180  O          7.5050   50.6850   13.1150 O.2   212  CYS212     -0.2864
    181  CB         7.7880   51.1860   16.0760 C.3   212  CYS212      0.0983
    182  SG         8.4670   51.8360   17.6330 S.3   212  CYS212     -0.0798
    183  N         13.4430   45.8490    9.4920 N.3   217  ARG217     -0.1245
    184  CA        13.9940   46.3870   10.7290 C.3   217  ARG217      0.1563
    185  C         13.3910   45.5830   11.8790 C.2   217  ARG217      0.2260
    186  O         12.4240   46.0030   12.5210 O.2   217  ARG217     -0.2867
    187  CB        13.6470   47.8650   10.9030 C.3   217  ARG217      0.0307
    188  CG        14.3850   48.8070    9.9640 C.3   217  ARG217      0.0489
    189  CD        15.9000   48.8000   10.1800 C.3   217  ARG217      0.2205
    190  NE        16.4970   49.9660    9.5330 N.pl3 217  ARG217     -0.0865
    191  CZ        17.7630   50.3440    9.6680 C.cat 217  ARG217      0.5346
    192  NH1       18.5940   49.6430   10.4280 N.pl3 217  ARG217      0.1354
    193  NH2       18.1910   51.4470    9.0680 N.pl3 217  ARG217      0.1354
    194  N         12.8490   43.7960   15.5390 N.3   219  GLY219     -0.1210
    195  CA        13.0120   44.3180   16.8760 C.3   219  GLY219      0.1956
    196  C         14.2110   43.5930   17.4510 C.2   219  GLY219      0.2612
    197  O         14.4460   42.4310   17.1180 O.2   219  GLY219     -0.2717
    198  N         14.9860   44.2660   18.2910 N.am  220  VAL220     -0.1965
    199  CA        16.1600   43.6410   18.8930 C.3   220  VAL220      0.1727
    200  C         15.8910   43.4110   20.3640 C.2   220  VAL220      0.2616
    201  O         15.4300   44.3150   21.0550 O.2   220  VAL220     -0.2715
    202  CB        17.4150   44.5260   18.7520 C.3   220  VAL220      0.0290
    203  CG1       18.6270   43.7990   19.3450 C.3   220  VAL220      0.0023
    204  CG2       17.6520   44.8710   17.2790 C.3   220  VAL220      0.0023
    205  N         16.1870   42.2040   20.8410 N.am  221  TYR221     -0.1974
    206  CA        15.9340   41.8520   22.2320 C.3   221  TYR221      0.1639
    207  C         17.1610   41.2630   22.9170 C.2   221  TYR221      0.2290
    208  O         18.0680   40.7490   22.2610 O.2   221  TYR221     -0.2864
    209  CB        14.8020   40.8200   22.3190 C.3   221  TYR221      0.0560
    210  CG        13.5120   41.2300   21.6550 C.ar  221  TYR221     -0.0198
    211  CD1       13.3820   41.2150   20.2720 C.ar  221  TYR221     -0.0009
    212  CD2       12.4210   41.6440   22.4120 C.ar  221  TYR221     -0.0009
    213  CE1       12.2010   41.5990   19.6590 C.ar  221  TYR221      0.0417
    214  CE2       11.2360   42.0330   21.8100 C.ar  221  TYR221      0.0417
    215  CZ        11.1310   42.0070   20.4310 C.ar  221  TYR221      0.1957
    216  OH         9.9560   42.3790   19.8160 O.3   221  TYR221     -0.2866
@<TRIPOS>BOND
     1   193   191    1
     2   183   184    1
     3   190   191    2
     4   190   189    1
     5   191   192    1
     6   188   189    1
     7   188   187    1
     8    65    66    1
     9    67    66    1
    10    67    68    2
    11   184   187    1
    12   184   185    1
    13    66    69    1
    14   185   186    2
    15   169   170    1
    16   169   168    1
    17    69    70    1
    18   170   171   ar
    19   170   172   ar
    20    70    71   ar
    21    70    72   ar
    22    77    78    1
    23   168   165    1
    24    71    73   ar
    25   180   179    2
    26    72    74   ar
    27   167   166    2
    28    73    75   ar
    29    80    79    2
    30    74    75   ar
    31    75    76    1
    32   179   178    1
    33   166   165    1
    34   166   173   am
    35   165   164    1
    36    78    79    1
    37    78    81    1
    38    83    85   ar
    39    83    82   ar
    40    63    62    1
    41   177   178    1
    42   177   175   am
    43   174   173    1
    44   174   175    1
    45    81    82    1
    46   178   181    1
    47   164   162   am
    48    85    86   ar
    49   175   176    2
    50    62    61    1
    51    62    64    1
    52    82    84   ar
    53   194   195    1
    54    91    92    1
    55    91    88    1
    56    61    58    1
    57    94    92   ar
    58    87    88    1
    59   181   182    1
    60    92    93   ar
    61    57    58    1
    62   162   163    2
    63   162   161    1
    64    86    84   ar
    65    88    89    1
    66    58    59    1
    67   195   196    1
    68   158   159   ar
    69   158   156   ar
    70   159   157   ar
    71   197   196    2
    72   161   160    1
    73   204   202    1
    74   196   198   am
    75    59    60    2
    76   182   105    1
    77    89    90    2
    78    89    95   am
    79   156   153   ar
    80   157   155   ar
    81   198   199    1
    82    43    42   ar
    83   160   148   am
    84    98    97    2
    85    95    96    1
    86   105   104    1
    87   202   199    1
    88   202   203    1
    89   199   200    1
    90   149   148    2
    91   153   155   ar
    92   153   151   ar
    93   155   154   ar
    94   148   147    1
    95    42    41    1
    96    42    44   ar
    97   104   101    1
    98   213   211   ar
    99   213   215   ar
   100    97    96    1
   101    97   100   am
   102   216   215    1
   103    96    99    1
   104    48    47    2
   105    41    40    1
   106   113   114    1
   107   113   112    1
   108   211   210   ar
   109    40    37    1
   110   200   205   am
   111   200   201    2
   112   101   100    1
   113   101   102    1
   114    39    38    2
   115    47    46    1
   116   215   214   ar
   117   151   150    1
   118   151   152   ar
   119   154   152   ar
   120   205   206    1
   121   147   150    1
   122   147   146    1
   123    49    46    1
   124    49    50    1
   125    37    38    1
   126    37    36    1
   127   112   111    1
   128    52    50   ar
   129    52    54   ar
   130   111   110    1
   131    46    45    1
   132   210   209    1
   133   210   212   ar
   134   106   102   am
   135   106   107    1
   136   102   103    2
   137    50    51   ar
   138   214   212   ar
   139   146   142   am
   140    54    55   ar
   141   206   209    1
   142   206   207    1
   143   208   207    2
   144    36    33   am
   145   126   124   ar
   146   110   107    1
   147   107   108    1
   148   142   143    2
   149   142   141    1
   150    51    53   ar
   151    34    33    2
   152    55    53   ar
   153    55    56    1
   154    33    32    1
   155   139   137    1
   156   124   123    1
   157   124   125   ar
   158   140   141    1
   159   140   135   am
   160   109   108    2
   161   144   141    1
   162   144   145    1
   163   108   115   am
   164   123   120    1
   165    35    32    1
   166   138   137    1
   167   134   137    1
   168   134   135    1
   169   134   133    1
   170    32    31    1
   171   135   136    2
   172   115   116    1
   173   119   120    1
   174   119   117   am
   175   120   121    1
   176   132   131    1
   177   121   127   am
   178   121   122    2
   179   127   128    1
   180   116   117    1
   181   117   118    2
   182   128   131    1
   183   128   129    1
   184    23    24   ar
   185    23    21   ar
   186    24    22   ar
   187    21    20   ar
   188    22    20   ar
   189    20    19    1
   190   129   130    2
   191    19    16    1
   192    16    17    1
   193    16    15    1
   194    18    17    2
   195    17    25   am
   196    30    14    1
   197    30    29    1
   198     4     3    2
   199    14    13    1
   200    25    26    1
   201    10    11    1
   202    10    13    1
   203    10     9    1
   204    26    29    1
   205    26    27    1
   206    11    12    2
   207     3     9   am
   208     3     2    1
   209     2     1    1
   210     2     5    1
   211    27    28    2
   212     7     6    1
   213     6     5    1
   214     6     8    1
