@<TRIPOS>MOLECULE
tmp/1zosE00.pdb
 143 135 0 0 0
SMALL
GASTEIGER

@<TRIPOS>ATOM
      1  N         22.6760   17.2240   74.8430 N.3     8  ALA8       -0.1231
      2  CA        22.6250   16.4050   73.6380 C.3     8  ALA8        0.1694
      3  C         22.6120   14.9050   73.9180 C.2     8  ALA8        0.2591
      4  O         21.8780   14.1560   73.2720 O.2     8  ALA8       -0.2718
      5  CB        23.8030   16.7480   72.7240 C.3     8  ALA8        0.0304
      6  N         23.4240   14.4780   74.8810 N.am    9  MET9       -0.1979
      7  CA        23.5460   13.0620   75.2210 C.3     9  MET9        0.1605
      8  C         23.1680   12.7500   76.6680 C.2     9  MET9        0.2287
      9  O         23.1890   13.6250   77.5320 O.2     9  MET9       -0.2864
     10  CB        24.9780   12.6050   74.9270 C.3     9  MET9        0.0413
     11  CG        25.3200   12.6120   73.4370 C.3     9  MET9        0.0598
     12  SD        27.0420   12.2040   73.0830 S.3     9  MET9       -0.1393
     13  CE        27.0690   10.4610   73.4740 C.3     9  MET9        0.0692
     14  N         25.3770   13.8200   79.5540 N.3    12  GLU12      -0.1245
     15  CA        25.3640   15.2370   79.8780 C.3    12  GLU12       0.1567
     16  C         24.1360   15.6870   80.6660 C.2    12  GLU12       0.2260
     17  O         24.0550   16.8390   81.0870 O.2    12  GLU12      -0.2867
     18  CB        25.4930   16.0450   78.5810 C.3    12  GLU12       0.0388
     19  CG        26.7000   15.6290   77.7430 C.3    12  GLU12       0.1160
     20  CD        26.6520   16.1500   76.3170 C.2    12  GLU12       0.3649
     21  OE1       25.6280   15.9360   75.6370 O.co2  12  GLU12      -0.2457
     22  OE2       27.6430   16.7630   75.8690 O.co2  12  GLU12      -0.2457
     23  N         21.9360   14.5080   69.2530 N.3    50  ILE50      -0.1245
     24  CA        23.0160   15.3180   68.6950 C.3    50  ILE50       0.1561
     25  C         22.7130   16.1140   67.4360 C.2    50  ILE50       0.2260
     26  O         22.0210   15.6350   66.5470 O.2    50  ILE50      -0.2867
     27  CB        24.2400   14.4130   68.4110 C.3    50  ILE50       0.0252
     28  CG1       24.7430   13.8120   69.7280 C.3    50  ILE50       0.0019
     29  CG2       25.3550   15.2060   67.7270 C.3    50  ILE50       0.0019
     30  CD1       25.5810   12.5610   69.5450 C.3    50  ILE50       0.0001
     31  N         29.2640   18.8830   76.6440 N.3    76  SER76      -0.1202
     32  CA        30.6770   18.8520   76.2840 C.3    76  SER76       0.2020
     33  C         30.9720   19.6460   75.0200 C.2    76  SER76       0.2619
     34  O         30.0760   19.9260   74.2250 O.2    76  SER76      -0.2717
     35  CB        31.1080   17.4080   76.0470 C.3    76  SER76       0.2103
     36  OG        30.3790   16.8590   74.9560 O.3    76  SER76      -0.2182
     37  N         32.2450   19.9840   74.8430 N.am   77  ALA77      -0.1965
     38  CA        32.7070   20.7090   73.6670 C.3    77  ALA77       0.1728
     39  C         34.2060   20.5010   73.4800 C.2    77  ALA77       0.2616
     40  O         34.8930   20.0160   74.3860 O.2    77  ALA77      -0.2715
     41  CB        32.3920   22.2000   73.7980 C.3    77  ALA77       0.0334
     42  N         34.7040   20.8600   72.2980 N.am   78  GLY78      -0.1955
     43  CA        36.1200   20.7190   72.0070 C.3    78  GLY78       0.1869
     44  C         36.8560   22.0250   72.2500 C.2    78  GLY78       0.2309
     45  O         36.4260   23.0870   71.7920 O.2    78  GLY78      -0.2863
     46  N         29.2130   19.3070   62.6440 N.3   150  SER150     -0.1202
     47  CA        30.3740   18.4530   62.4330 C.3   150  SER150      0.2020
     48  C         31.1720   18.3270   63.7190 C.2   150  SER150      0.2619
     49  O         31.2110   19.2480   64.5350 O.2   150  SER150     -0.2717
     50  CB        31.3000   19.0320   61.3560 C.3   150  SER150      0.2103
     51  OG        30.7190   19.0050   60.0650 O.3   150  SER150     -0.2182
     52  N         31.8010   17.1700   63.8960 N.am  151  PHE151     -0.1961
     53  CA        32.6460   16.9350   65.0570 C.3   151  PHE151      0.1771
     54  C         34.0410   17.3460   64.5960 C.2   151  PHE151      0.2619
     55  O         34.5830   16.7810   63.6430 O.2   151  PHE151     -0.2715
     56  CB        32.6140   15.4530   65.4520 C.3   151  PHE151      0.0574
     57  CG        33.4790   15.1220   66.6370 C.ar  151  PHE151     -0.0200
     58  CD1       34.7320   14.5440   66.4620 C.ar  151  PHE151     -0.0042
     59  CD2       33.0470   15.4040   67.9260 C.ar  151  PHE151     -0.0042
     60  CE1       35.5490   14.2500   67.5620 C.ar  151  PHE151     -0.0003
     61  CE2       33.8570   15.1140   69.0340 C.ar  151  PHE151     -0.0003
     62  CZ        35.1060   14.5380   68.8480 C.ar  151  PHE151     -0.0000
     63  N         34.6070   18.3540   65.2530 N.am  152  VAL152     -0.1977
     64  CA        35.9200   18.8700   64.8850 C.3   152  VAL152      0.1596
     65  C         37.0200   17.9910   65.4640 C.2   152  VAL152      0.2287
     66  O         37.1490   17.8560   66.6810 O.2   152  VAL152     -0.2864
     67  CB        36.0750   20.3370   65.3690 C.3   152  VAL152      0.0276
     68  CG1       37.3980   20.9110   64.9100 C.3   152  VAL152      0.0022
     69  CG2       34.9210   21.1750   64.8190 C.3   152  VAL152      0.0022
     70  N         34.3000   24.5440   70.4470 N.3   171  VAL171     -0.1231
     71  CA        33.3950   24.1960   69.3530 C.3   171  VAL171      0.1692
     72  C         32.5070   23.0140   69.7200 C.2   171  VAL171      0.2592
     73  O         32.9370   22.0940   70.4110 O.2   171  VAL171     -0.2718
     74  CB        34.1790   23.8180   68.0690 C.3   171  VAL171      0.0266
     75  CG1       34.9790   25.0130   67.5700 C.3   171  VAL171      0.0020
     76  CG2       35.1140   22.6360   68.3530 C.3   171  VAL171      0.0020
     77  N         31.2610   23.0510   69.2650 N.am  172  GLU172     -0.1966
     78  CA        30.3360   21.9580   69.5270 C.3   172  GLU172      0.1733
     79  C         29.2760   21.8630   68.4410 C.2   172  GLU172      0.2616
     80  O         29.4100   22.4990   67.3970 O.2   172  GLU172     -0.2715
     81  CB        29.7070   22.0840   70.9190 C.3   172  GLU172      0.0429
     82  CG        29.7980   23.4560   71.5660 C.3   172  GLU172      0.1163
     83  CD        28.5260   24.2470   71.3950 C.2   172  GLU172      0.3649
     84  OE1       28.0420   24.3030   70.2580 O.co2 172  GLU172     -0.2457
     85  OE2       28.0200   24.8110   72.3920 O.co2 172  GLU172     -0.2457
     86  N         28.2270   21.0790   68.6800 N.am  173  MET173     -0.1963
     87  CA        27.1920   20.8750   67.6670 C.3   173  MET173      0.1736
     88  C         25.7440   21.2960   67.9480 C.2   173  MET173      0.2616
     89  O         24.8600   20.9940   67.1430 O.2   173  MET173     -0.2715
     90  CB        27.2010   19.4010   67.2570 C.3   173  MET173      0.0427
     91  CG        28.5190   18.9560   66.6400 C.3   173  MET173      0.0599
     92  SD        28.6730   17.1650   66.4950 S.3   173  MET173     -0.1393
     93  CE        27.6490   16.8690   65.0760 C.3   173  MET173      0.0692
     94  N         25.4830   21.9910   69.0500 N.am  174  GLU174     -0.1977
     95  CA        24.1060   22.4040   69.3420 C.3   174  GLU174      0.1602
     96  C         23.9470   23.8210   69.8720 C.2   174  GLU174      0.2287
     97  O         22.8600   24.3900   69.7970 O.2   174  GLU174     -0.2864
     98  CB        23.4620   21.4590   70.3620 C.3   174  GLU174      0.0415
     99  CG        23.3990   20.0090   69.9350 C.3   174  GLU174      0.1163
    100  CD        24.6640   19.2380   70.2660 C.2   174  GLU174      0.3649
    101  OE1       24.8590   18.1580   69.6730 O.co2 174  GLU174     -0.2457
    102  OE2       25.4480   19.6940   71.1240 O.co2 174  GLU174     -0.2457
    103  N         29.4710   24.7230   78.4730 N.3   193  ARG193     -0.1245
    104  CA        30.0820   23.4830   77.9890 C.3   193  ARG193      0.1563
    105  C         31.4120   23.2230   78.6800 C.2   193  ARG193      0.2260
    106  O         32.1850   24.1520   78.9110 O.2   193  ARG193     -0.2867
    107  CB        30.3470   23.5490   76.4780 C.3   193  ARG193      0.0307
    108  CG        29.1280   23.7490   75.5900 C.3   193  ARG193      0.0489
    109  CD        28.1980   22.5490   75.6380 C.3   193  ARG193      0.2205
    110  NE        27.0950   22.6640   74.6830 N.pl3 193  ARG193     -0.0865
    111  CZ        27.0680   22.0800   73.4880 C.cat 193  ARG193      0.5346
    112  NH1       28.0850   21.3340   73.0850 N.pl3 193  ARG193      0.1354
    113  NH2       26.0100   22.2230   72.6990 N.pl3 193  ARG193      0.1354
    114  N         35.7310   18.2790   76.6170 N.3   196  SER196     -0.1202
    115  CA        35.9100   16.8340   76.6310 C.3   196  SER196      0.2020
    116  C         37.0930   16.4220   75.7680 C.2   196  SER196      0.2618
    117  O         37.5610   15.2860   75.8520 O.2   196  SER196     -0.2717
    118  CB        34.6460   16.1470   76.1060 C.3   196  SER196      0.2103
    119  OG        34.2670   16.6910   74.8480 O.3   196  SER196     -0.2182
    120  N         37.5800   17.3470   74.9440 N.am  197  ASP197     -0.1973
    121  CA        38.6800   17.0420   74.0340 C.3   197  ASP197      0.1709
    122  C         39.3250   18.3080   73.4830 C.2   197  ASP197      0.2293
    123  O         38.8880   19.4210   73.7770 O.2   197  ASP197     -0.2864
    124  CB        38.1470   16.2000   72.8740 C.3   197  ASP197      0.1436
    125  CG        37.0250   16.9000   72.1260 C.2   197  ASP197      0.3671
    126  OD1       37.3180   17.6690   71.1840 O.co2 197  ASP197     -0.2456
    127  OD2       35.8540   16.6960   72.4980 O.co2 197  ASP197     -0.2456
    128  N         39.6580   18.8650   70.1230 N.3   199  ALA199     -0.1245
    129  CA        39.2110   19.0400   68.7410 C.3   199  ALA199      0.1562
    130  C         40.2910   18.7530   67.7010 C.2   199  ALA199      0.2260
    131  O         40.2540   19.2970   66.5890 O.2   199  ALA199     -0.2867
    132  CB        38.6770   20.4670   68.5500 C.3   199  ALA199      0.0290
    133  N         36.9360   12.4480   73.5960 N.3   207  PHE207     -0.1241
    134  CA        35.5030   12.5850   73.8160 C.3   207  PHE207      0.1605
    135  C         34.9530   11.3120   74.4620 C.2   207  PHE207      0.2264
    136  O         34.2290   11.3790   75.4520 O.2   207  PHE207     -0.2867
    137  CB        34.7540   12.8230   72.5060 C.3   207  PHE207      0.0534
    138  CG        33.2600   12.8770   72.6800 C.ar  207  PHE207     -0.0203
    139  CD1       32.6520   14.0100   73.2130 C.ar  207  PHE207     -0.0042
    140  CD2       32.4690   11.7740   72.3730 C.ar  207  PHE207     -0.0042
    141  CE1       31.2770   14.0450   73.4430 C.ar  207  PHE207     -0.0003
    142  CE2       31.0910   11.7980   72.5980 C.ar  207  PHE207     -0.0003
    143  CZ        30.4960   12.9380   73.1370 C.ar  207  PHE207     -0.0000
@<TRIPOS>BOND
     1    51    50    1
     2    50    47    1
     3    47    46    1
     4    47    48    1
     5    55    54    2
     6    48    52   am
     7    48    49    2
     8    52    53    1
     9    54    53    1
    10    54    63   am
    11    69    67    1
    12    64    63    1
    13    64    67    1
    14    64    65    1
    15    68    67    1
    16    53    56    1
    17    93    92    1
    18    56    57    1
    19    65    66    2
    20    58    57   ar
    21    58    60   ar
    22    92    91    1
    23    26    25    2
    24   131   130    2
    25    57    59   ar
    26    91    90    1
    27    89    88    2
    28    90    87    1
    29    80    79    2
    30    25    24    1
    31    60    62   ar
    32    75    74    1
    33    87    88    1
    34    87    86    1
    35   130   129    1
    36    29    27    1
    37    59    61   ar
    38    88    94   am
    39    74    76    1
    40    74    71    1
    41    27    24    1
    42    27    28    1
    43    79    86   am
    44    79    78    1
    45   132   129    1
    46    24    23    1
    47   129   128    1
    48    62    61   ar
    49    94    95    1
    50    77    78    1
    51    77    72   am
    52    95    96    1
    53    95    98    1
    54    71    72    1
    55    71    70    1
    56    78    81    1
    57    30    28    1
    58   101   100   ar
    59    72    73    2
    60    97    96    2
    61    99   100    1
    62    99    98    1
    63    84    83   ar
    64   100   102   ar
    65    81    82    1
    66   126   125   ar
    67    83    82    1
    68    83    85   ar
    69    45    44    2
    70    43    44    1
    71    43    42    1
    72   125   127   ar
    73   125   124    1
    74    42    39   am
    75   140   142   ar
    76   140   138   ar
    77   137   138    1
    78   137   134    1
    79   142   143   ar
    80   138   139   ar
    81   113   111    1
    82     5     2    1
    83   124   121    1
    84    12    11    1
    85    12    13    1
    86   112   111    1
    87   143   141   ar
    88   139   141   ar
    89     4     3    2
    90    11    10    1
    91    39    38    1
    92    39    40    2
    93   122   123    2
    94   122   121    1
    95   111   110    2
    96   133   134    1
    97     2     3    1
    98     2     1    1
    99    38    41    1
   100    38    37    1
   101   134   135    1
   102     3     6   am
   103   121   120    1
   104    34    33    2
   105   135   136    2
   106   110   109    1
   107    37    33   am
   108   119   118    1
   109     6     7    1
   110    10     7    1
   111   120   116   am
   112    36    35    1
   113    33    32    1
   114     7     8    1
   115   108   109    1
   116   108   107    1
   117    21    20   ar
   118   116   117    2
   119   116   115    1
   120    22    20   ar
   121    35    32    1
   122   118   115    1
   123    32    31    1
   124    20    19    1
   125   107   104    1
   126   114   115    1
   127     8     9    2
   128    19    18    1
   129   104   103    1
   130   104   105    1
   131    18    15    1
   132   105   106    2
   133    14    15    1
   134    15    16    1
   135    16    17    2
