@<TRIPOS>MOLECULE
tmp/1zotA00.pdb
 202 196 0 0 0
SMALL
GASTEIGER

@<TRIPOS>ATOM
      1  N          0.0360   34.4380   73.0650 N.3    35  ARG35      -0.1245
      2  CA         0.6750   35.4090   73.9210 C.3    35  ARG35       0.1563
      3  C         -0.3050   35.4910   75.0850 C.2    35  ARG35       0.2260
      4  O         -1.4810   35.2080   74.9200 O.2    35  ARG35      -0.2867
      5  CB         0.7750   36.7550   73.2320 C.3    35  ARG35       0.0307
      6  CG         1.7850   36.8400   72.0810 C.3    35  ARG35       0.0489
      7  CD         1.8570   38.2710   71.5690 C.3    35  ARG35       0.2205
      8  NE         2.8940   39.0720   72.2380 N.pl3  35  ARG35      -0.0865
      9  CZ         2.7070   40.3080   72.6870 C.cat  35  ARG35       0.5346
     10  NH1        1.5100   40.8970   72.5510 N.pl3  35  ARG35       0.1354
     11  NH2        3.7190   40.9690   73.2590 N.pl3  35  ARG35       0.1354
     12  N        -11.4350   42.9360   70.0210 N.3    52  LYS52      -0.1231
     13  CA       -10.9710   43.9400   69.0500 C.3    52  LYS52       0.1693
     14  C         -9.9850   43.4910   67.9630 C.2    52  LYS52       0.2593
     15  O         -9.0430   42.7070   68.2120 O.2    52  LYS52      -0.2718
     16  CB       -10.3360   45.1300   69.7820 C.3    52  LYS52       0.0285
     17  CG        -9.0800   44.7750   70.5460 C.3    52  LYS52       0.0035
     18  CD        -8.0350   45.8310   70.3860 C.3    52  LYS52       0.0206
     19  CE        -6.9310   45.6970   71.4240 C.3    52  LYS52       0.1093
     20  NZ        -7.4650   45.9240   72.8390 N.3    52  LYS52      -0.1314
     21  N        -10.2000   44.0440   66.7680 N.am   53  GLY53      -0.1942
     22  CA        -9.3680   43.7280   65.6180 C.3    53  GLY53       0.2014
     23  C         -8.2480   44.7290   65.4630 C.2    53  GLY53       0.2638
     24  O         -8.0640   45.5660   66.3460 O.2    53  GLY53      -0.2714
     25  N         -7.5000   44.6620   64.3550 N.am   54  LEU54      -0.1977
     26  CA        -6.3670   45.5900   64.1120 C.3    54  LEU54       0.1596
     27  C         -6.8440   46.9850   63.7170 C.2    54  LEU54       0.2287
     28  O         -6.0400   47.9230   63.5860 O.2    54  LEU54      -0.2864
     29  CB        -5.4940   45.0700   62.9850 C.3    54  LEU54       0.0297
     30  CG        -5.1690   43.6090   63.0380 C.3    54  LEU54       0.0022
     31  CD1       -4.3940   43.1840   61.8080 C.3    54  LEU54       0.0001
     32  CD2       -4.3670   43.3690   64.2870 C.3    54  LEU54       0.0001
     33  N         -8.3330   48.8470   65.4640 N.3    56  VAL56      -0.1231
     34  CA        -8.4970   49.5680   66.7220 C.3    56  VAL56       0.1692
     35  C         -7.1590   49.8090   67.3830 C.2    56  VAL56       0.2592
     36  O         -6.5490   48.8800   67.9020 O.2    56  VAL56      -0.2718
     37  CB        -9.3400   48.7690   67.7150 C.3    56  VAL56       0.0266
     38  CG1       -9.4840   49.5500   69.0270 C.3    56  VAL56       0.0020
     39  CG2      -10.6640   48.4710   67.1350 C.3    56  VAL56       0.0020
     40  N         -6.6980   51.0490   67.3940 N.am   57  HIS57      -0.1962
     41  CA        -5.4130   51.3220   68.0250 C.3    57  HIS57       0.1787
     42  C         -5.4810   52.0670   69.3560 C.2    57  HIS57       0.2620
     43  O         -4.4490   52.3580   69.9420 O.2    57  HIS57      -0.2715
     44  CB        -4.5220   52.1080   67.0810 C.3    57  HIS57       0.0785
     45  CG        -3.9500   51.2730   65.9880 C.ar   57  HIS57       0.0821
     46  ND1       -4.7310   50.7120   65.0000 N.ar   57  HIS57      -0.2267
     47  CD2       -2.6930   50.8150   65.7860 C.ar   57  HIS57       0.1154
     48  CE1       -3.9790   49.9380   64.2400 C.ar   57  HIS57       0.1986
     49  NE2       -2.7370   49.9840   64.6940 N.ar   57  HIS57      -0.2212
     50  N         -6.6940   52.3850   69.8010 N.am   58  ALA58      -0.1963
     51  CA        -6.9010   53.1030   71.0520 C.3    58  ALA58       0.1728
     52  C         -6.3390   52.2130   72.1530 C.2    58  ALA58       0.2616
     53  O         -6.2460   51.0230   71.9530 O.2    58  ALA58      -0.2715
     54  CB        -8.4000   53.3670   71.2520 C.3    58  ALA58       0.0334
     55  N         -5.9280   52.7690   73.2880 N.am   59  LYS59      -0.1963
     56  CA        -5.3570   51.9190   74.3470 C.3    59  LYS59       0.1728
     57  C         -6.3520   51.5290   75.4440 C.2    59  LYS59       0.2616
     58  O         -7.2210   52.3390   75.8250 O.2    59  LYS59      -0.2715
     59  CB        -4.1320   52.5980   74.9720 C.3    59  LYS59       0.0311
     60  CG        -2.9400   52.7320   74.0090 C.3    59  LYS59       0.0038
     61  CD        -1.5900   52.6330   74.7180 C.3    59  LYS59       0.0206
     62  CE        -0.5410   52.0390   73.7590 C.3    59  LYS59       0.1093
     63  NZ        -1.0410   50.7220   73.1560 N.3    59  LYS59      -0.1314
     64  N         -6.2230   50.3020   75.9600 N.am   60  SER60      -0.1950
     65  CA        -7.1400   49.8310   77.0140 C.3    60  SER60       0.1924
     66  C         -6.8720   50.5690   78.2900 C.2    60  SER60       0.2314
     67  O         -5.9550   51.3870   78.3690 O.2    60  SER60      -0.2863
     68  CB        -6.9950   48.3230   77.2990 C.3    60  SER60       0.2116
     69  OG        -5.6770   47.9950   77.6920 O.3    60  SER60      -0.2180
     70  N         -4.9740   53.4030   80.3660 N.3    78  LYS78      -0.1245
     71  CA        -3.6730   53.2580   80.9750 C.3    78  LYS78       0.1561
     72  C         -2.7940   54.5170   80.8630 C.2    78  LYS78       0.2260
     73  O         -1.8160   54.6790   81.6080 O.2    78  LYS78      -0.2867
     74  CB        -2.9530   52.0360   80.3710 C.3    78  LYS78       0.0271
     75  CG        -3.1610   51.7910   78.8520 C.3    78  LYS78       0.0035
     76  CD        -2.5510   50.4630   78.3830 C.3    78  LYS78       0.0206
     77  CE        -1.0460   50.4120   78.6460 C.3    78  LYS78       0.1093
     78  NZ        -0.4790   49.0270   78.4090 N.3    78  LYS78      -0.1314
     79  N         -9.6660   43.1450   74.9420 N.3   181  ALA181     -0.1231
     80  CA        -8.5350   42.6390   74.1900 C.3   181  ALA181      0.1694
     81  C         -8.8770   41.2940   73.5550 C.2   181  ALA181      0.2592
     82  O         -9.7600   40.5600   74.0220 O.2   181  ALA181     -0.2718
     83  CB        -7.3340   42.4880   75.0920 C.3   181  ALA181      0.0304
     84  N         -8.1900   40.9710   72.4670 N.am  182  ASP182     -0.1974
     85  CA        -8.4540   39.7140   71.7940 C.3   182  ASP182      0.1709
     86  C         -7.3070   38.7820   72.1520 C.2   182  ASP182      0.2293
     87  O         -6.3570   39.2130   72.8090 O.2   182  ASP182     -0.2864
     88  CB        -8.5580   39.9440   70.2820 C.3   182  ASP182      0.1436
     89  CG        -7.3230   40.5550   69.6970 C.2   182  ASP182      0.3671
     90  OD1       -6.9590   41.7140   70.0190 O.co2 182  ASP182     -0.2456
     91  OD2       -6.7090   39.8590   68.8890 O.co2 182  ASP182     -0.2456
     92  N         -4.1910   37.0090   71.0580 N.3   184  ASP184     -0.1225
     93  CA        -3.1290   37.0480   70.0540 C.3   184  ASP184      0.1805
     94  C         -2.4150   35.7430   69.9420 C.2   184  ASP184      0.2597
     95  O         -1.8430   35.2830   70.9190 O.2   184  ASP184     -0.2718
     96  CB        -2.0720   38.1060   70.3870 C.3   184  ASP184      0.1424
     97  CG        -2.5700   39.5060   70.1740 C.2   184  ASP184      0.3668
     98  OD1       -3.6190   39.6360   69.5190 O.co2 184  ASP184     -0.2456
     99  OD2       -1.9210   40.4720   70.6490 O.co2 184  ASP184     -0.2456
    100  N         -2.4280   35.1420   68.7600 N.am  185  MET185     -0.1979
    101  CA        -1.7140   33.9120   68.5980 C.3   185  MET185      0.1605
    102  C         -0.2570   34.2520   68.3210 C.2   185  MET185      0.2287
    103  O          0.0400   35.2420   67.6470 O.2   185  MET185     -0.2864
    104  CB        -2.3390   33.1000   67.4830 C.3   185  MET185      0.0413
    105  CG        -3.7580   32.7310   67.7920 C.3   185  MET185      0.0598
    106  SD        -4.3160   31.3140   66.9190 S.3   185  MET185     -0.1393
    107  CE        -3.1390   30.2100   67.3820 C.3   185  MET185      0.0692
    108  N         -3.0900   40.6360   52.1220 N.3   248  PHE248     -0.1241
    109  CA        -3.7560   40.7100   53.4180 C.3   248  PHE248      0.1605
    110  C         -5.0310   39.9500   53.1740 C.2   248  PHE248      0.2264
    111  O         -5.4540   39.7800   52.0290 O.2   248  PHE248     -0.2867
    112  CB        -4.1230   42.1430   53.8370 C.3   248  PHE248      0.0534
    113  CG        -2.9550   42.9700   54.2720 C.ar  248  PHE248     -0.0203
    114  CD1       -2.4570   43.9710   53.4530 C.ar  248  PHE248     -0.0042
    115  CD2       -2.2800   42.6710   55.4350 C.ar  248  PHE248     -0.0042
    116  CE1       -1.2910   44.6470   53.7890 C.ar  248  PHE248     -0.0003
    117  CE2       -1.1110   43.3390   55.7830 C.ar  248  PHE248     -0.0003
    118  CZ        -0.6100   44.3160   54.9750 C.ar  248  PHE248     -0.0000
    119  N         -4.9600   40.8350   58.6510 N.3   257  GLY257     -0.1210
    120  CA        -3.5180   40.7280   58.6870 C.3   257  GLY257      0.1956
    121  C         -3.0660   39.6570   57.7210 C.2   257  GLY257      0.2611
    122  O         -3.8800   39.1220   56.9850 O.2   257  GLY257     -0.2717
    123  N         -1.7770   39.3590   57.7150 N.am  258  VAL258     -0.1979
    124  CA        -1.2320   38.3420   56.8480 C.3   258  VAL258      0.1595
    125  C         -1.4690   37.0220   57.5660 C.2   258  VAL258      0.2287
    126  O         -1.1050   36.8700   58.7480 O.2   258  VAL258     -0.2864
    127  CB         0.2660   38.6000   56.6190 C.3   258  VAL258      0.0276
    128  CG1        0.9250   37.4180   55.8990 C.3   258  VAL258      0.0022
    129  CG2        0.4460   39.8950   55.8110 C.3   258  VAL258      0.0022
    130  N         -7.0740   38.1030   64.1080 N.3   285  HIS285     -0.1226
    131  CA        -6.1140   38.3190   63.0390 C.3   285  HIS285      0.1752
    132  C         -5.1000   37.2280   63.0050 C.2   285  HIS285      0.2597
    133  O         -5.1940   36.2500   63.7490 O.2   285  HIS285     -0.2718
    134  CB        -5.3890   39.6280   63.2390 C.3   285  HIS285      0.0759
    135  CG        -4.7060   39.7210   64.5570 C.ar  285  HIS285      0.0818
    136  ND1       -5.0860   40.6190   65.5280 N.ar  285  HIS285     -0.2268
    137  CD2       -3.6860   39.0070   65.0800 C.ar  285  HIS285      0.1154
    138  CE1       -4.3250   40.4580   66.5960 C.ar  285  HIS285      0.1986
    139  NE2       -3.4670   39.4860   66.3510 N.ar  285  HIS285     -0.2212
    140  N         -4.1020   37.4240   62.1570 N.am  286  GLY286     -0.1942
    141  CA        -3.0690   36.4240   62.0080 C.3   286  GLY286      0.2014
    142  C         -2.1070   36.3270   63.1650 C.2   286  GLY286      0.2640
    143  O         -2.1890   37.0240   64.1550 O.2   286  GLY286     -0.2714
    144  N         -1.1540   35.4500   62.9650 N.am  287  THR287     -0.1936
    145  CA        -0.1100   35.1280   63.8870 C.3   287  THR287      0.2028
    146  C          1.0080   36.1730   64.0110 C.2   287  THR287      0.2642
    147  O          1.2650   36.9480   63.0970 O.2   287  THR287     -0.2714
    148  CB         0.4380   33.7560   63.4490 C.3   287  THR287      0.1808
    149  OG1       -0.4380   32.7190   63.9320 O.3   287  THR287     -0.2208
    150  CG2        1.8620   33.5430   63.8630 C.3   287  THR287      0.0379
    151  N          1.6540   36.1820   65.1760 N.am  288  GLU288     -0.1976
    152  CA         2.7910   37.0510   65.4780 C.3   288  GLU288      0.1602
    153  C          3.9670   36.7710   64.5050 C.2   288  GLU288      0.2287
    154  O          4.8050   37.6520   64.2900 O.2   288  GLU288     -0.2864
    155  CB         3.2220   36.8120   66.9350 C.3   288  GLU288      0.0415
    156  CG         4.5120   37.4750   67.4050 C.3   288  GLU288      0.1163
    157  CD         4.3880   38.9680   67.6990 C.2   288  GLU288      0.3649
    158  OE1        5.4020   39.5580   68.1200 O.co2 288  GLU288     -0.2457
    159  OE2        3.3100   39.5630   67.5190 O.co2 288  GLU288     -0.2457
    160  N          3.8750   36.8120   61.5530 N.3   290  ASN290     -0.1225
    161  CA         3.6580   37.7160   60.4360 C.3   290  ASN290      0.1785
    162  C          3.3770   39.1360   60.8970 C.2   290  ASN290      0.2597
    163  O          2.8160   39.9310   60.1350 O.2   290  ASN290     -0.2718
    164  CB         2.5100   37.2430   59.5760 C.3   290  ASN290      0.1169
    165  CG         2.8610   36.0070   58.8280 C.2   290  ASN290      0.2627
    166  OD1        3.7810   36.0110   58.0080 O.2   290  ASN290     -0.2716
    167  ND2        2.1590   34.9080   59.1300 N.am  290  ASN290     -0.0877
    168  N          3.7500   39.4680   62.1410 N.am  291  ASN291     -0.1961
    169  CA         3.5120   40.8250   62.6370 C.3   291  ASN291      0.1804
    170  C          4.7240   41.7120   62.3320 C.2   291  ASN291      0.2463
    171  O          5.8390   41.3800   62.7080 O.2   291  ASN291     -0.2730
    172  CB         3.2500   40.8240   64.1640 C.3   291  ASN291      0.1195
    173  CG         2.9270   42.2360   64.7190 C.2   291  ASN291      0.2630
    174  OD1        2.0320   42.3110   65.7070 O.2   291  ASN291     -0.2716
    175  ND2        3.4930   43.2380   64.2640 N.am  291  ASN291     -0.0877
    176  N          4.5280   42.8140   61.5910 N.am  292  PRO292     -0.2716
    177  CA         5.6660   43.6970   61.2930 C.3   292  PRO292      0.1536
    178  C          6.2260   44.4000   62.5480 C.2   292  PRO292      0.2598
    179  O          7.3870   44.7590   62.5920 O.2   292  PRO292     -0.2715
    180  CB         5.0900   44.6880   60.2840 C.3   292  PRO292      0.0310
    181  CG         3.5640   44.5130   60.4040 C.3   292  PRO292      0.0237
    182  CD         3.4030   43.0840   60.6790 C.3   292  PRO292      0.0939
    183  N          5.3720   44.6040   63.5510 N.am  293  PHE293     -0.1974
    184  CA         5.7630   45.2340   64.8110 C.3   293  PHE293      0.1639
    185  C          5.8880   44.0470   65.7670 C.2   293  PHE293      0.2290
    186  O          5.0310   43.8700   66.6310 O.2   293  PHE293     -0.2864
    187  CB         4.6400   46.1370   65.3290 C.3   293  PHE293      0.0560
    188  CG         3.9370   46.9480   64.2580 C.ar  293  PHE293     -0.0200
    189  CD1        2.7180   46.5230   63.7390 C.ar  293  PHE293     -0.0042
    190  CD2        4.4850   48.1350   63.7930 C.ar  293  PHE293     -0.0042
    191  CE1        2.0440   47.2680   62.7600 C.ar  293  PHE293     -0.0003
    192  CE2        3.8330   48.8960   62.8190 C.ar  293  PHE293     -0.0003
    193  CZ         2.6020   48.4620   62.2940 C.ar  293  PHE293     -0.0000
    194  N          6.5190   41.9530   68.7570 N.3   295  GLU295     -0.1245
    195  CA         6.6250   42.3170   70.1550 C.3   295  GLU295      0.1567
    196  C          7.4260   41.2370   70.8390 C.2   295  GLU295      0.2260
    197  O          7.3500   40.0810   70.4490 O.2   295  GLU295     -0.2867
    198  CB         5.2270   42.4460   70.7580 C.3   295  GLU295      0.0388
    199  CG         4.5180   43.7130   70.3170 C.3   295  GLU295      0.1160
    200  CD         3.3540   44.0650   71.1950 C.2   295  GLU295      0.3649
    201  OE1        3.5360   43.9560   72.4410 O.co2 295  GLU295     -0.2457
    202  OE2        2.2750   44.4660   70.6540 O.co2 295  GLU295     -0.2457
@<TRIPOS>BOND
     1   111   110    2
     2   108   109    1
     3   110   109    1
     4   109   112    1
     5   114   116   ar
     6   114   113   ar
     7   116   118   ar
     8   112   113    1
     9   113   115   ar
    10   118   117   ar
    11   115   117   ar
    12   129   127    1
    13   128   127    1
    14   127   124    1
    15   124   125    1
    16   124   123    1
    17   122   121    2
    18   125   126    2
    19   123   121   am
    20   121   120    1
    21   166   165    2
    22   119   120    1
    23   165   167   am
    24   165   164    1
    25   164   161    1
    26   163   162    2
    27   180   181    1
    28   180   177    1
    29   181   182    1
    30   161   162    1
    31   161   160    1
    32   182   176    1
    33   162   168   am
    34   177   176    1
    35   177   178    1
    36   176   170   am
    37    31    30    1
    38   141   140    1
    39   141   142    1
    40   168   169    1
    41   140   132   am
    42   193   191   ar
    43   193   192   ar
    44   170   169    1
    45   170   171    2
    46   178   179    2
    47   178   183   am
    48   169   172    1
    49   191   189   ar
    50   192   190   ar
    51   144   142   am
    52   144   145    1
    53    29    30    1
    54    29    26    1
    55   132   131    1
    56   132   133    2
    57    30    32    1
    58   131   134    1
    59   131   130    1
    60   147   146    2
    61   142   143    2
    62   134   135    1
    63   148   150    1
    64   148   145    1
    65   148   149    1
    66   183   184    1
    67    28    27    2
    68    27    26    1
    69   189   188   ar
    70   190   188   ar
    71   145   146    1
    72   146   151   am
    73    26    25    1
    74   172   173    1
    75    48    49   ar
    76    48    46   ar
    77   188   187    1
    78   175   173   am
    79   154   153    2
    80    25    23   am
    81   153   152    1
    82   135   137   ar
    83   135   136   ar
    84    49    47   ar
    85   173   174    2
    86   184   187    1
    87   184   185    1
    88    46    45   ar
    89   137   139   ar
    90   151   152    1
    91    23    22    1
    92    23    24    2
    93    33    34    1
    94   152   155    1
    95   136   138   ar
    96    22    21    1
    97   185   186    2
    98    47    45   ar
    99    45    44    1
   100   139   138   ar
   101    34    35    1
   102    34    37    1
   103    21    14   am
   104   106   107    1
   105   106   105    1
   106   155   156    1
   107    44    41    1
   108    39    37    1
   109    35    40   am
   110    35    36    2
   111    40    41    1
   112   156   157    1
   113   104   105    1
   114   104   101    1
   115   159   157   ar
   116   103   102    2
   117   157   158   ar
   118    37    38    1
   119    14    15    2
   120    14    13    1
   121    41    42    1
   122   102   101    1
   123   101   100    1
   124   194   195    1
   125   100    94   am
   126    91    89   ar
   127    13    16    1
   128    13    12    1
   129    42    50   am
   130    42    43    2
   131    98    97   ar
   132    89    90   ar
   133    89    88    1
   134    16    17    1
   135    50    51    1
   136    94    93    1
   137    94    95    2
   138    93    96    1
   139    93    92    1
   140   195   198    1
   141   195   196    1
   142    97    96    1
   143    97    99   ar
   144    88    85    1
   145   199   198    1
   146   199   200    1
   147    18    17    1
   148    18    19    1
   149   197   196    2
   150   202   200   ar
   151    51    54    1
   152    51    52    1
   153   200   201   ar
   154    19    20    1
   155     7     6    1
   156     7     8    1
   157    85    86    1
   158    85    84    1
   159    53    52    2
   160     6     5    1
   161    86    87    2
   162    52    55   am
   163     8     9    2
   164    84    81   am
   165    10     9    1
   166     9    11    1
   167     1     2    1
   168    63    62    1
   169     5     2    1
   170    55    56    1
   171    81    82    2
   172    81    80    1
   173    62    61    1
   174     2     3    1
   175    60    61    1
   176    60    59    1
   177    80    79    1
   178    80    83    1
   179    56    59    1
   180    56    57    1
   181     4     3    2
   182    57    58    2
   183    57    64   am
   184    64    65    1
   185    65    68    1
   186    65    66    1
   187    68    69    1
   188    66    67    2
   189    76    77    1
   190    76    75    1
   191    78    77    1
   192    75    74    1
   193    70    71    1
   194    74    71    1
   195    72    71    1
   196    72    73    2
