@<TRIPOS>MOLECULE
tmp/1zp0A01.pdb
 108 101 0 0 0
SMALL
GASTEIGER

@<TRIPOS>ATOM
      1  N         85.8540   49.0690  121.6200 N.3    53  GLN53      -0.1231
      2  CA        84.6860   48.3950  121.0700 C.3    53  GLN53       0.1698
      3  C         83.6770   47.9690  122.1290 C.2    53  GLN53       0.2592
      4  O         82.4850   48.2360  121.9960 O.2    53  GLN53      -0.2718
      5  CB        85.1390   47.1680  120.2770 C.3    53  GLN53       0.0381
      6  CG        86.2250   47.4600  119.2550 C.3    53  GLN53       0.0905
      7  CD        86.8710   46.1990  118.7160 C.2    53  GLN53       0.2608
      8  OE1       86.2100   45.3580  118.1090 O.2    53  GLN53      -0.2717
      9  NE2       88.1730   46.0610  118.9390 N.am   53  GLN53      -0.0878
     10  N         84.1630   47.3000  123.1710 N.am   54  GLY54      -0.1957
     11  CA        83.2960   46.8270  124.2390 C.3    54  GLY54       0.1869
     12  C         82.1780   47.7700  124.6440 C.2    54  GLY54       0.2309
     13  O         81.0480   47.6380  124.1740 O.2    54  GLY54      -0.2863
     14  N         79.4180   41.5310  130.7160 N.3   122  PHE122     -0.1241
     15  CA        80.8480   41.6940  130.5120 C.3   122  PHE122      0.1605
     16  C         81.6630   41.0480  131.6260 C.2   122  PHE122      0.2264
     17  O         81.1410   40.7320  132.6960 O.2   122  PHE122     -0.2867
     18  CB        81.2120   43.1760  130.4060 C.3   122  PHE122      0.0534
     19  CG        82.1040   43.4940  129.2400 C.ar  122  PHE122     -0.0203
     20  CD1       82.8490   44.6650  129.2150 C.ar  122  PHE122     -0.0042
     21  CD2       82.1880   42.6270  128.1570 C.ar  122  PHE122     -0.0042
     22  CE1       83.6660   44.9680  128.1280 C.ar  122  PHE122     -0.0003
     23  CE2       82.9980   42.9220  127.0690 C.ar  122  PHE122     -0.0003
     24  CZ        83.7390   44.0930  127.0540 C.ar  122  PHE122     -0.0000
     25  N         98.1310   44.6720  131.7840 N.3   243  GLN243     -0.1245
     26  CA        97.0280   43.7790  131.4640 C.3   243  GLN243      0.1566
     27  C         97.1610   43.0790  130.1200 C.2   243  GLN243      0.2260
     28  O         97.3210   43.7230  129.0840 O.2   243  GLN243     -0.2867
     29  CB        95.7010   44.5330  131.4800 C.3   243  GLN243      0.0367
     30  CG        94.5080   43.6250  131.2190 C.3   243  GLN243      0.0905
     31  CD        93.2140   44.3860  131.0490 C.2   243  GLN243      0.2608
     32  OE1       93.1000   45.5370  131.4640 O.2   243  GLN243     -0.2717
     33  NE2       92.2210   43.7400  130.4490 N.am  243  GLN243     -0.0878
     34  N         95.3300   41.0420  127.3410 N.3   245  HIS245     -0.1241
     35  CA        93.9990   40.7290  126.8490 C.3   245  HIS245      0.1621
     36  C         93.9800   39.3550  126.1930 C.2   245  HIS245      0.2264
     37  O         94.8430   39.0290  125.3790 O.2   245  HIS245     -0.2867
     38  CB        93.5470   41.7980  125.8560 C.3   245  HIS245      0.0745
     39  CG        92.0660   41.8200  125.6440 C.ar  245  HIS245      0.0817
     40  ND1       91.4660   41.3400  124.5010 N.ar  245  HIS245     -0.2268
     41  CD2       91.0630   42.2410  126.4480 C.ar  245  HIS245      0.1154
     42  CE1       90.1560   41.4570  124.6140 C.ar  245  HIS245      0.1986
     43  NE2       89.8850   42.0040  125.7840 N.ar  245  HIS245     -0.2212
     44  N         92.8250   43.8210  118.2340 N.3   255  LEU255     -0.1245
     45  CA        91.8790   43.3170  119.2160 C.3   255  LEU255      0.1561
     46  C         90.4910   42.9400  118.7100 C.2   255  LEU255      0.2260
     47  O         89.9930   43.4860  117.7250 O.2   255  LEU255     -0.2867
     48  CB        91.7240   44.3290  120.3570 C.3   255  LEU255      0.0270
     49  CG        90.5970   43.9880  121.3360 C.3   255  LEU255      0.0019
     50  CD1       90.8320   42.5990  121.8730 C.3   255  LEU255      0.0001
     51  CD2       90.5310   44.9870  122.4680 C.3   255  LEU255      0.0001
     52  N         87.0990   42.7330  120.6660 N.3   257  THR257     -0.1203
     53  CA        86.3490   43.0290  121.8890 C.3   257  THR257      0.1994
     54  C         85.9360   41.8270  122.7290 C.2   257  THR257      0.2617
     55  O         85.5620   40.7790  122.2110 O.2   257  THR257     -0.2717
     56  CB        85.0640   43.8270  121.5790 C.3   257  THR257      0.1784
     57  OG1       84.3490   44.0820  122.7960 O.3   257  THR257     -0.2211
     58  CG2       84.1700   43.0400  120.6330 C.3   257  THR257      0.0376
     59  N         86.0050   41.9930  124.0400 N.am  258  GLU258     -0.1979
     60  CA        85.6040   40.9370  124.9470 C.3   258  GLU258      0.1602
     61  C         84.0910   40.8480  124.8920 C.2   258  GLU258      0.2287
     62  O         83.4840   39.9260  125.4380 O.2   258  GLU258     -0.2864
     63  CB        86.0410   41.2870  126.3520 C.3   258  GLU258      0.0415
     64  CG        85.3420   40.5240  127.4310 C.3   258  GLU258      0.1163
     65  CD        85.9380   40.8520  128.7530 C.2   258  GLU258      0.3649
     66  OE1       87.1640   40.6780  128.8840 O.co2 258  GLU258     -0.2457
     67  OE2       85.1940   41.2930  129.6470 O.co2 258  GLU258     -0.2457
     68  N         90.0940   39.5760  133.1870 N.3   289  ARG289     -0.1245
     69  CA        91.0300   39.5370  132.0690 C.3   289  ARG289      0.1563
     70  C         92.3480   38.8860  132.4560 C.2   289  ARG289      0.2260
     71  O         92.9500   38.1570  131.6680 O.2   289  ARG289     -0.2867
     72  CB        91.3190   40.9520  131.5780 C.3   289  ARG289      0.0307
     73  CG        90.2130   41.9370  131.8590 C.3   289  ARG289      0.0489
     74  CD        89.0330   41.7620  130.9100 C.3   289  ARG289      0.2205
     75  NE        88.1490   40.6170  131.1620 N.pl3 289  ARG289     -0.0865
     76  CZ        88.2840   39.4140  130.6100 C.cat 289  ARG289      0.5346
     77  NH1       89.2900   39.1670  129.7850 N.pl3 289  ARG289      0.1354
     78  NH2       87.3800   38.4670  130.8260 N.pl3 289  ARG289      0.1354
     79  N         97.6180   44.7690  126.4130 N.3   356  HIS356     -0.1241
     80  CA        96.4200   45.5330  126.1060 C.3   356  HIS356      0.1621
     81  C         96.2560   46.8410  126.8770 C.2   356  HIS356      0.2264
     82  O         96.1930   47.9150  126.2800 O.2   356  HIS356     -0.2867
     83  CB        95.2090   44.6310  126.3510 C.3   356  HIS356      0.0745
     84  CG        93.8900   45.2770  126.0690 C.ar  356  HIS356      0.0817
     85  ND1       93.4980   45.6480  124.8010 N.ar  356  HIS356     -0.2268
     86  CD2       92.8600   45.5900  126.8890 C.ar  356  HIS356      0.1154
     87  CE1       92.2810   46.1580  124.8530 C.ar  356  HIS356      0.1986
     88  NE2       91.8720   46.1360  126.1080 N.ar  356  HIS356     -0.2212
     89  N         92.2850   45.7280  135.6800 N.3   400  ARG400     -0.1245
     90  CA        91.1600   46.5100  135.1890 C.3   400  ARG400      0.1563
     91  C         89.9820   45.6440  134.7590 C.2   400  ARG400      0.2260
     92  O         90.1460   44.6560  134.0410 O.2   400  ARG400     -0.2867
     93  CB        91.6040   47.3900  134.0160 C.3   400  ARG400      0.0307
     94  CG        90.4590   47.8740  133.1450 C.3   400  ARG400      0.0489
     95  CD        90.9140   48.8290  132.0540 C.3   400  ARG400      0.2205
     96  NE        89.9510   48.8430  130.9610 N.pl3 400  ARG400     -0.0865
     97  CZ        89.7170   47.7940  130.1820 C.cat 400  ARG400      0.5346
     98  NH1       90.3820   46.6660  130.3770 N.pl3 400  ARG400      0.1354
     99  NH2       88.8100   47.8560  129.2240 N.pl3 400  ARG400      0.1354
    100  N         86.8260   44.8720  132.5960 N.3   402  GLY402     -0.1210
    101  CA        86.4200   45.2490  131.2530 C.3   402  GLY402      0.1956
    102  C         85.3150   46.2900  131.2170 C.2   402  GLY402      0.2611
    103  O         84.3530   46.2050  131.9810 O.2   402  GLY402     -0.2717
    104  N         85.4580   47.2710  130.3270 N.am  403  ALA403     -0.1979
    105  CA        84.4840   48.3530  130.1560 C.3   403  ALA403      0.1597
    106  C         84.5540   49.4110  131.2550 C.2   403  ALA403      0.2287
    107  O         83.6300   50.2090  131.4190 O.2   403  ALA403     -0.2864
    108  CB        83.0660   47.7870  130.0690 C.3   403  ALA403      0.0319
@<TRIPOS>BOND
     1    47    46    2
     2     8     7    2
     3    44    45    1
     4    46    45    1
     5     7     9   am
     6     7     6    1
     7    45    48    1
     8     6     5    1
     9     5     2    1
    10    48    49    1
    11    58    56    1
    12    52    53    1
    13     2     1    1
    14     2     3    1
    15    49    50    1
    16    49    51    1
    17    56    53    1
    18    56    57    1
    19    53    54    1
    20     4     3    2
    21     3    10   am
    22    55    54    2
    23    54    59   am
    24    10    11    1
    25    59    60    1
    26    13    12    2
    27    11    12    1
    28    40    42   ar
    29    40    39   ar
    30    42    43   ar
    31    85    87   ar
    32    85    84   ar
    33    87    88   ar
    34    61    60    1
    35    61    62    2
    36    60    63    1
    37    37    36    2
    38    39    38    1
    39    39    41   ar
    40    43    41   ar
    41    38    35    1
    42    84    83    1
    43    84    86   ar
    44    80    83    1
    45    80    79    1
    46    80    81    1
    47    88    86   ar
    48    36    35    1
    49    82    81    2
    50    63    64    1
    51    35    34    1
    52    24    23   ar
    53    24    22   ar
    54    23    21   ar
    55    64    65    1
    56    22    20   ar
    57    21    19   ar
    58    65    66   ar
    59    65    67   ar
    60    28    27    2
    61    20    19   ar
    62    99    97    1
    63    19    18    1
    64    77    76    1
    65   108   105    1
    66    27    26    1
    67   105   104    1
    68   105   106    1
    69    97    98    1
    70    97    96    2
    71   104   102   am
    72    18    15    1
    73    33    31   am
    74    15    14    1
    75    15    16    1
    76    76    78    1
    77    76    75    2
    78    74    75    1
    79    74    73    1
    80    96    95    1
    81    31    30    1
    82    31    32    2
    83   102   101    1
    84   102   103    2
    85    30    29    1
    86   101   100    1
    87   106   107    2
    88    26    29    1
    89    26    25    1
    90    72    73    1
    91    72    69    1
    92    16    17    2
    93    71    70    2
    94    95    94    1
    95    69    70    1
    96    69    68    1
    97    94    93    1
    98    93    90    1
    99    92    91    2
   100    91    90    1
   101    90    89    1
