@<TRIPOS>MOLECULE
tmp/1zp3B01.pdb
 90 85 0 0 0
SMALL
GASTEIGER

@<TRIPOS>ATOM
      1  N          3.2260   25.3310   19.9320 N.3    26  GLU26      -0.1245
      2  CA         4.4070   25.8650   20.5950 C.3    26  GLU26       0.1567
      3  C          4.8030   27.1940   19.9600 C.2    26  GLU26       0.2260
      4  O          4.8910   27.3060   18.7320 O.2    26  GLU26      -0.2867
      5  CB         5.5750   24.8770   20.4770 C.3    26  GLU26       0.0388
      6  CG         6.8280   25.3140   21.2320 C.3    26  GLU26       0.1160
      7  CD         7.8960   24.2360   21.2510 C.2    26  GLU26       0.3649
      8  OE1        7.5990   23.1260   21.7460 O.co2  26  GLU26      -0.2457
      9  OE2        9.0160   24.5020   20.7740 O.co2  26  GLU26      -0.2457
     10  N          8.4140   28.6220   24.5920 N.3    57  THR57      -0.1218
     11  CA         9.7890   28.2440   24.8810 C.3    57  THR57       0.1862
     12  C         10.5720   29.2760   25.6990 C.2    57  THR57       0.2287
     13  O         10.1740   30.4340   25.8330 O.2    57  THR57      -0.2866
     14  CB        10.5740   27.9860   23.5810 C.3    57  THR57       0.1770
     15  OG1       10.6730   29.2060   22.8300 O.3    57  THR57      -0.2211
     16  CG2        9.8640   26.9250   22.7290 C.3    57  THR57       0.0375
     17  N         10.9350   15.4330   19.4550 N.3   179  GLN179     -0.1231
     18  CA        11.6850   16.3980   18.6830 C.3   179  GLN179      0.1698
     19  C         11.0420   16.2040   17.3050 C.2   179  GLN179      0.2592
     20  O         10.4420   15.1570   17.0570 O.2   179  GLN179     -0.2718
     21  CB        13.1550   15.9670   18.6330 C.3   179  GLN179      0.0381
     22  CG        14.0250   16.8170   17.7370 C.3   179  GLN179      0.0905
     23  CD        14.0150   18.2670   18.1640 C.2   179  GLN179      0.2608
     24  OE1       13.0280   18.9730   17.9710 O.2   179  GLN179     -0.2717
     25  NE2       15.1120   18.7140   18.7740 N.am  179  GLN179     -0.0878
     26  N         11.1400   17.1790   16.4100 N.am  180  PHE180     -0.1976
     27  CA        10.5220   16.9850   15.0990 C.3   180  PHE180      0.1639
     28  C         11.2950   15.9320   14.3100 C.2   180  PHE180      0.2290
     29  O         12.4410   15.6040   14.6390 O.2   180  PHE180     -0.2864
     30  CB        10.4600   18.3030   14.3130 C.3   180  PHE180      0.0560
     31  CG        11.8050   18.8670   13.9550 C.ar  180  PHE180     -0.0200
     32  CD1       12.4310   18.5180   12.7600 C.ar  180  PHE180     -0.0042
     33  CD2       12.4520   19.7450   14.8200 C.ar  180  PHE180     -0.0042
     34  CE1       13.6920   19.0380   12.4290 C.ar  180  PHE180     -0.0003
     35  CE2       13.7060   20.2710   14.5040 C.ar  180  PHE180     -0.0003
     36  CZ        14.3300   19.9200   13.3090 C.ar  180  PHE180     -0.0000
     37  N          6.9220   19.7410   12.7020 N.3   208  LEU208     -0.1245
     38  CA         7.4890   21.0030   12.2480 C.3   208  LEU208      0.1561
     39  C          7.0930   21.2680   10.7940 C.2   208  LEU208      0.2260
     40  O          7.6620   20.6720    9.8780 O.2   208  LEU208     -0.2867
     41  CB         9.0170   20.9890   12.3460 C.3   208  LEU208      0.0270
     42  CG         9.6700   22.2300   11.7160 C.3   208  LEU208      0.0019
     43  CD1        9.3420   23.4600   12.5530 C.3   208  LEU208      0.0001
     44  CD2       11.1730   22.0410   11.6220 C.3   208  LEU208      0.0001
     45  N         18.2630   23.4660   11.7820 N.3   219  PHE219     -0.1241
     46  CA        17.7190   22.8930   13.0170 C.3   219  PHE219      0.1605
     47  C         18.0110   21.3890   13.0320 C.2   219  PHE219      0.2264
     48  O         18.5000   20.8420   14.0240 O.2   219  PHE219     -0.2867
     49  CB        16.1960   23.0900   13.0810 C.3   219  PHE219      0.0534
     50  CG        15.7550   24.5180   13.2920 C.ar  219  PHE219     -0.0203
     51  CD1       14.4710   24.9110   12.9280 C.ar  219  PHE219     -0.0042
     52  CD2       16.5940   25.4530   13.8930 C.ar  219  PHE219     -0.0042
     53  CE1       14.0240   26.2150   13.1620 C.ar  219  PHE219     -0.0003
     54  CE2       16.1600   26.7570   14.1330 C.ar  219  PHE219     -0.0003
     55  CZ        14.8730   27.1390   13.7660 C.ar  219  PHE219     -0.0000
     56  N         21.6640   20.3660   13.6360 N.3   222  MET222     -0.1230
     57  CA        22.0580   20.5870   15.0280 C.3   222  MET222      0.1702
     58  C         21.3970   19.6080   16.0040 C.2   222  MET222      0.2593
     59  O         21.8700   19.4310   17.1300 O.2   222  MET222     -0.2718
     60  CB        21.7050   22.0160   15.4530 C.3   222  MET222      0.0401
     61  CG        22.4900   23.1110   14.7350 C.3   222  MET222      0.0596
     62  SD        24.2270   23.2100   15.2310 S.3   222  MET222     -0.1393
     63  CE        25.0010   22.1070   14.0250 C.3   222  MET222      0.0692
     64  N         20.3130   18.9680   15.5760 N.am  223  THR223     -0.1953
     65  CA        19.5890   18.0420   16.4420 C.3   223  THR223      0.1897
     66  C         19.6450   16.5790   16.0200 C.2   223  THR223      0.2313
     67  O         18.9600   15.7360   16.6030 O.2   223  THR223     -0.2863
     68  CB        18.1070   18.4480   16.5560 C.3   223  THR223      0.1794
     69  OG1       17.5470   18.5790   15.2430 O.3   223  THR223     -0.2208
     70  CG2       17.9690   19.7630   17.2970 C.3   223  THR223      0.0378
     71  N          5.1850   22.8660   16.0770 N.3   271  TYR271     -0.1241
     72  CA         6.2460   23.8580   16.2380 C.3   271  TYR271      0.1605
     73  C          5.8840   24.9390   15.2130 C.2   271  TYR271      0.2264
     74  O          6.3000   24.8950   14.0500 O.2   271  TYR271     -0.2867
     75  CB         7.6010   23.2210   15.9190 C.3   271  TYR271      0.0534
     76  CG         7.9920   22.1180   16.8930 C.ar  271  TYR271     -0.0201
     77  CD1        8.2090   22.4010   18.2460 C.ar  271  TYR271     -0.0009
     78  CD2        8.1950   20.8060   16.4530 C.ar  271  TYR271     -0.0009
     79  CE1        8.6270   21.4190   19.1320 C.ar  271  TYR271      0.0417
     80  CE2        8.6130   19.8070   17.3390 C.ar  271  TYR271      0.0417
     81  CZ         8.8340   20.1220   18.6730 C.ar  271  TYR271      0.1957
     82  OH         9.2970   19.1640   19.5450 O.3   271  TYR271     -0.2866
     83  N          6.6560   28.1840   15.1620 N.3   273  LEU273     -0.1245
     84  CA         7.6290   29.2430   14.8990 C.3   273  LEU273      0.1561
     85  C          6.8410   30.5570   14.8010 C.2   273  LEU273      0.2260
     86  O          7.1950   31.4730   14.0500 O.2   273  LEU273     -0.2867
     87  CB         8.4230   28.9800   13.6160 C.3   273  LEU273      0.0270
     88  CG         9.3850   27.7910   13.7380 C.3   273  LEU273      0.0019
     89  CD1       10.1650   27.6320   12.4550 C.3   273  LEU273      0.0001
     90  CD2       10.3320   28.0050   14.9200 C.3   273  LEU273      0.0001
@<TRIPOS>BOND
     1    40    39    2
     2    39    38    1
     3    44    42    1
     4    42    41    1
     5    42    43    1
     6    45    46    1
     7    38    41    1
     8    38    37    1
     9    34    32   ar
    10    34    36   ar
    11    89    88    1
    12    32    31   ar
    13    51    53   ar
    14    51    50   ar
    15    46    47    1
    16    46    49    1
    17    47    48    2
    18    49    50    1
    19    53    55   ar
    20    50    52   ar
    21    36    35   ar
    22    87    88    1
    23    87    84    1
    24    56    57    1
    25    88    90    1
    26    55    54   ar
    27    52    54   ar
    28    31    30    1
    29    31    33   ar
    30    63    62    1
    31    74    73    2
    32    86    85    2
    33    28    29    2
    34    28    27    1
    35    30    27    1
    36    35    33   ar
    37    61    62    1
    38    61    60    1
    39    85    84    1
    40    84    83    1
    41    57    60    1
    42    57    58    1
    43    27    26    1
    44    73    72    1
    45    69    68    1
    46    64    58   am
    47    64    65    1
    48    75    72    1
    49    75    76    1
    50    58    59    2
    51    66    65    1
    52    66    67    2
    53    71    72    1
    54    26    19   am
    55    65    68    1
    56    78    76   ar
    57    78    80   ar
    58    68    70    1
    59    76    77   ar
    60    20    19    2
    61    19    18    1
    62    80    81   ar
    63    22    23    1
    64    22    21    1
    65    24    23    2
    66    23    25   am
    67    77    79   ar
    68    21    18    1
    69    81    79   ar
    70    81    82    1
    71    18    17    1
    72     4     3    2
    73     1     2    1
    74     3     2    1
    75     5     2    1
    76     5     6    1
    77     9     7   ar
    78     6     7    1
    79     7     8   ar
    80    16    14    1
    81    15    14    1
    82    14    11    1
    83    10    11    1
    84    11    12    1
    85    12    13    2
