@<TRIPOS>MOLECULE
tmp/1zp4C00.pdb
 178 170 0 0 0
SMALL
GASTEIGER

@<TRIPOS>ATOM
      1  N          5.3200   16.1270   19.9590 N.3     7  GLN7       -0.1245
      2  CA         5.0050   15.4820   18.6920 C.3     7  GLN7        0.1566
      3  C          3.5030   15.2750   18.5530 C.2     7  GLN7        0.2260
      4  O          2.8520   14.7500   19.4540 O.2     7  GLN7       -0.2867
      5  CB         5.7180   14.1350   18.6040 C.3     7  GLN7        0.0367
      6  CG         5.5100   13.4230   17.2760 C.3     7  GLN7        0.0905
      7  CD         6.3890   12.2000   17.1310 C.2     7  GLN7        0.2608
      8  OE1        7.6170   12.2980   17.1580 O.2     7  GLN7       -0.2717
      9  NE2        5.7620   11.0380   16.9640 N.am    7  GLN7       -0.0878
     10  N          0.1050   14.3260   15.5990 N.3     9  PHE9       -0.1241
     11  CA        -0.1910   13.5800   14.3810 C.3     9  PHE9        0.1605
     12  C         -1.3960   14.2260   13.6920 C.2     9  PHE9        0.2264
     13  O         -2.2310   14.8460   14.3430 O.2     9  PHE9       -0.2867
     14  CB        -0.4360   12.0890   14.6780 C.3     9  PHE9        0.0534
     15  CG        -1.6720   11.7960   15.4850 C.ar    9  PHE9       -0.0203
     16  CD1       -2.9260   11.7340   14.8760 C.ar    9  PHE9       -0.0042
     17  CD2       -1.5710   11.4920   16.8440 C.ar    9  PHE9       -0.0042
     18  CE1       -4.0560   11.3660   15.6040 C.ar    9  PHE9       -0.0003
     19  CE2       -2.6960   11.1230   17.5820 C.ar    9  PHE9       -0.0003
     20  CZ        -3.9400   11.0580   16.9640 C.ar    9  PHE9       -0.0000
     21  N          3.8480   13.9760   12.6560 N.3    38  THR38      -0.1218
     22  CA         4.1120   12.7150   11.9800 C.3    38  THR38       0.1862
     23  C          3.4750   12.5780   10.6050 C.2    38  THR38       0.2287
     24  O          2.5840   13.3410   10.2300 O.2    38  THR38      -0.2866
     25  CB         3.6400   11.5250   12.8380 C.3    38  THR38       0.1770
     26  OG1        2.2350   11.6340   13.0690 O.3    38  THR38      -0.2211
     27  CG2        4.3590   11.5170   14.1920 C.3    38  THR38       0.0375
     28  N          7.5870   15.4160    9.7070 N.3    67  HIS67      -0.1241
     29  CA         8.3330   14.1690    9.6450 C.3    67  HIS67       0.1621
     30  C          8.2450   13.8030    8.1730 C.2    67  HIS67       0.2264
     31  O          7.1460   13.6560    7.6280 O.2    67  HIS67      -0.2867
     32  CB         7.6830   13.0730   10.4900 C.3    67  HIS67       0.0745
     33  CG         7.7930   13.3000   11.9670 C.ar   67  HIS67       0.0817
     34  ND1        7.7940   12.2660   12.8790 N.ar   67  HIS67      -0.2268
     35  CD2        7.8920   14.4400   12.6910 C.ar   67  HIS67       0.1154
     36  CE1        7.8910   12.7590   14.1010 C.ar   67  HIS67       0.1986
     37  NE2        7.9510   14.0750   14.0150 N.ar   67  HIS67      -0.2212
     38  N          7.5730    4.0060    7.9620 N.3    99  ASP99      -0.1239
     39  CA         6.8910    2.7430    8.2370 C.3    99  ASP99       0.1674
     40  C          6.3020    2.2630    6.9120 C.2    99  ASP99       0.2266
     41  O          5.3160    2.8220    6.4270 O.2    99  ASP99      -0.2867
     42  CB         5.7470    2.9280    9.2470 C.3    99  ASP99       0.1410
     43  CG         6.2350    3.0830   10.6800 C.2    99  ASP99       0.3668
     44  OD1        7.1930    2.3870   11.0680 O.co2  99  ASP99      -0.2456
     45  OD2        5.6440    3.8880   11.4280 O.co2  99  ASP99      -0.2456
     46  N         17.2800    4.1570   18.2650 N.3   125  TYR125     -0.1241
     47  CA        16.5890    3.0450   18.9120 C.3   125  TYR125      0.1605
     48  C         17.3990    2.3990   20.0390 C.2   125  TYR125      0.2264
     49  O         18.2690    1.5660   19.7850 O.2   125  TYR125     -0.2867
     50  CB        16.2540    1.9830   17.8600 C.3   125  TYR125      0.0534
     51  CG        15.4710    2.5400   16.6950 C.ar  125  TYR125     -0.0201
     52  CD1       16.1240    3.0810   15.5830 C.ar  125  TYR125     -0.0009
     53  CD2       14.0830    2.6020   16.7380 C.ar  125  TYR125     -0.0009
     54  CE1       15.4030    3.6770   14.5410 C.ar  125  TYR125      0.0417
     55  CE2       13.3530    3.1980   15.7020 C.ar  125  TYR125      0.0417
     56  CZ        14.0240    3.7310   14.6100 C.ar  125  TYR125      0.1957
     57  OH        13.3030    4.3020   13.5800 O.3   125  TYR125     -0.2866
     58  N         13.1820    6.2520   20.1330 N.3   156  GLN156     -0.1231
     59  CA        11.9210    5.5370   20.1610 C.3   156  GLN156      0.1698
     60  C         11.6040    5.5710   21.6590 C.2   156  GLN156      0.2592
     61  O         12.5190    5.6990   22.4780 O.2   156  GLN156     -0.2718
     62  CB        12.1760    4.0910   19.7120 C.3   156  GLN156      0.0381
     63  CG        11.0040    3.1400   19.8710 C.3   156  GLN156      0.0905
     64  CD         9.8040    3.5830   19.0770 C.2   156  GLN156      0.2608
     65  OE1        9.0910    4.5040   19.4780 O.2   156  GLN156     -0.2717
     66  NE2        9.5820    2.9440   17.9300 N.am  156  GLN156     -0.0878
     67  N         10.3350    5.4650   22.0390 N.am  157  PHE157     -0.1976
     68  CA        10.0210    5.4930   23.4580 C.3   157  PHE157      0.1639
     69  C         10.5480    4.2280   24.1230 C.2   157  PHE157      0.2290
     70  O         10.8750    3.2430   23.4490 O.2   157  PHE157     -0.2864
     71  CB         8.5130    5.6430   23.6940 C.3   157  PHE157      0.0560
     72  CG         7.6850    4.5070   23.1520 C.ar  157  PHE157     -0.0200
     73  CD1        7.4710    3.3580   23.9090 C.ar  157  PHE157     -0.0042
     74  CD2        7.1030    4.5960   21.8930 C.ar  157  PHE157     -0.0042
     75  CE1        6.6840    2.3170   23.4180 C.ar  157  PHE157     -0.0003
     76  CE2        6.3150    3.5610   21.3910 C.ar  157  PHE157     -0.0003
     77  CZ         6.1050    2.4180   22.1580 C.ar  157  PHE157     -0.0000
     78  N          6.8070    8.6220   26.0790 N.3   185  LEU185     -0.1245
     79  CA         5.4160    8.2980   25.7770 C.3   185  LEU185      0.1561
     80  C          4.6040    8.1940   27.0670 C.2   185  LEU185      0.2260
     81  O          4.6890    7.1910   27.7840 O.2   185  LEU185     -0.2867
     82  CB         5.3060    6.9710   25.0120 C.3   185  LEU185      0.0270
     83  CG         3.8720    6.4640   24.7930 C.3   185  LEU185      0.0019
     84  CD1        3.1370    7.4030   23.8290 C.3   185  LEU185      0.0001
     85  CD2        3.9020    5.0470   24.2290 C.3   185  LEU185      0.0001
     86  N         -1.6840    6.5080   28.9820 N.3   188  SER188     -0.1202
     87  CA        -2.9880    6.6060   29.6260 C.3   188  SER188      0.2020
     88  C         -3.7910    5.3930   29.1610 C.2   188  SER188      0.2618
     89  O         -4.6270    4.8700   29.8960 O.2   188  SER188     -0.2717
     90  CB        -3.6950    7.9140   29.2470 C.3   188  SER188      0.2103
     91  OG        -3.7500    8.0930   27.8480 O.3   188  SER188     -0.2182
     92  N         -3.5150    4.9430   27.9390 N.am  189  ASN189     -0.1974
     93  CA        -4.1780    3.7680   27.3760 C.3   189  ASN189      0.1688
     94  C         -3.0990    2.6950   27.2280 C.2   189  ASN189      0.2292
     95  O         -2.3380    2.6970   26.2580 O.2   189  ASN189     -0.2864
     96  CB        -4.7770    4.0900   26.0060 C.3   189  ASN189      0.1181
     97  CG        -5.5860    2.9400   25.4430 C.2   189  ASN189      0.2629
     98  OD1       -5.1350    1.7920   25.4250 O.2   189  ASN189     -0.2716
     99  ND2       -6.7920    3.2440   24.9720 N.am  189  ASN189     -0.0877
    100  N         -3.2080    0.0000   24.1080 N.3   192  GLN192     -0.1231
    101  CA        -2.6510    0.5230   22.8700 C.3   192  GLN192      0.1698
    102  C         -1.1390    0.7310   22.9500 C.2   192  GLN192      0.2592
    103  O         -0.4270    0.5060   21.9710 O.2   192  GLN192     -0.2718
    104  CB        -3.3480    1.8310   22.4940 C.3   192  GLN192      0.0381
    105  CG        -4.8430    1.6790   22.2000 C.3   192  GLN192      0.0905
    106  CD        -5.1450    0.5790   21.1890 C.2   192  GLN192      0.2608
    107  OE1       -5.1250   -0.6100   21.5180 O.2   192  GLN192     -0.2717
    108  NE2       -5.4180    0.9730   19.9490 N.am  192  GLN192     -0.0878
    109  N         -0.6460    1.1630   24.1090 N.am  193  ALA193     -0.1980
    110  CA         0.7880    1.3670   24.2770 C.3   193  ALA193      0.1597
    111  C          1.5040    0.0160   24.1880 C.2   193  ALA193      0.2287
    112  O          2.5680   -0.1000   23.5790 O.2   193  ALA193     -0.2864
    113  CB         1.0720    2.0330   25.6240 C.3   193  ALA193      0.0319
    114  N          0.5400   -2.6090   22.5570 N.3   195  LYS195     -0.1231
    115  CA         0.5140   -3.0590   21.1700 C.3   195  LYS195      0.1693
    116  C          1.6470   -2.4200   20.3810 C.2   195  LYS195      0.2592
    117  O          2.3360   -3.0860   19.6060 O.2   195  LYS195     -0.2718
    118  CB        -0.8300   -2.7100   20.5270 C.3   195  LYS195      0.0285
    119  CG        -0.8110   -3.2550   19.0990 C.3   195  LYS195      0.0035
    120  CD        -2.1460   -3.3470   18.4010 C.3   195  LYS195      0.0206
    121  CE        -2.4620   -2.0330   17.7070 C.3   195  LYS195      0.1093
    122  NZ        -2.1590   -0.8720   18.6060 N.3   195  LYS195     -0.1314
    123  N          1.8370   -1.1210   20.5780 N.am  196  PHE196     -0.1976
    124  CA         2.8850   -0.4010   19.8730 C.3   196  PHE196      0.1639
    125  C          4.2680   -0.8820   20.2940 C.2   196  PHE196      0.2290
    126  O          5.1600   -1.0360   19.4600 O.2   196  PHE196     -0.2864
    127  CB         2.7730    1.1010   20.1380 C.3   196  PHE196      0.0560
    128  CG         3.0170    1.9430   18.9220 C.ar  196  PHE196     -0.0200
    129  CD1        1.9580    2.3260   18.1030 C.ar  196  PHE196     -0.0042
    130  CD2        4.3100    2.3270   18.5720 C.ar  196  PHE196     -0.0042
    131  CE1        2.1840    3.0780   16.9530 C.ar  196  PHE196     -0.0003
    132  CE2        4.5460    3.0780   17.4250 C.ar  196  PHE196     -0.0003
    133  CZ         3.4820    3.4540   16.6130 C.ar  196  PHE196     -0.0000
    134  N          7.4420   -2.7160   18.1810 N.3   200  THR200     -0.1218
    135  CA         8.7310   -2.0440   18.0530 C.3   200  THR200      0.1862
    136  C          9.8370   -2.6190   18.9280 C.2   200  THR200      0.2287
    137  O         10.9110   -2.0300   19.0360 O.2   200  THR200     -0.2866
    138  CB         8.5880   -0.5430   18.3720 C.3   200  THR200      0.1770
    139  OG1        7.9890   -0.3850   19.6660 O.3   200  THR200     -0.2211
    140  CG2        7.7100    0.1380   17.3310 C.3   200  THR200      0.0375
    141  N          5.6580   12.3010   23.0640 N.3   248  TYR248     -0.1227
    142  CA         4.7250   11.6880   22.1210 C.3   248  TYR248      0.1736
    143  C          3.3570   11.9460   22.7480 C.2   248  TYR248      0.2596
    144  O          2.8190   11.1160   23.4770 O.2   248  TYR248     -0.2718
    145  CB         4.9970   10.1780   22.0080 C.3   248  TYR248      0.0548
    146  CG         6.3450    9.8510   21.3990 C.ar  248  TYR248     -0.0200
    147  CD1        6.6890   10.3330   20.1360 C.ar  248  TYR248     -0.0009
    148  CD2        7.2760    9.0560   22.0810 C.ar  248  TYR248     -0.0009
    149  CE1        7.9190   10.0450   19.5550 C.ar  248  TYR248      0.0417
    150  CE2        8.5160    8.7540   21.5090 C.ar  248  TYR248      0.0417
    151  CZ         8.8300    9.2530   20.2460 C.ar  248  TYR248      0.1957
    152  OH        10.0330    8.9660   19.6600 O.3   248  TYR248     -0.2866
    153  N          2.7970   13.1170   22.4580 N.am  249  THR249     -0.1939
    154  CA         1.5290   13.5210   23.0370 C.3   249  THR249      0.2028
    155  C          0.2880   12.7950   22.5560 C.2   249  THR249      0.2642
    156  O         -0.7230   12.7700   23.2630 O.2   249  THR249     -0.2714
    157  CB         1.2770   15.0160   22.7980 C.3   249  THR249      0.1808
    158  OG1        0.9300   15.2170   21.4210 O.3   249  THR249     -0.2208
    159  CG2        2.5330   15.8270   23.1060 C.3   249  THR249      0.0379
    160  N          0.3600   12.2140   21.3630 N.am  250  LEU250     -0.1977
    161  CA        -0.7980   11.5460   20.7740 C.3   250  LEU250      0.1596
    162  C         -1.9480   12.5580   20.7010 C.2   250  LEU250      0.2287
    163  O         -3.1240   12.2060   20.8160 O.2   250  LEU250     -0.2864
    164  CB        -1.1990   10.3180   21.5980 C.3   250  LEU250      0.0297
    165  CG        -0.1030    9.2510   21.6790 C.3   250  LEU250      0.0022
    166  CD1       -0.6710    7.9550   22.2380 C.3   250  LEU250      0.0001
    167  CD2        0.4810    9.0230   20.3050 C.3   250  LEU250      0.0001
    168  N         -2.8090   14.8580   22.8090 N.3   252  ARG252     -0.1245
    169  CA        -3.4380   15.2210   24.0760 C.3   252  ARG252      0.1563
    170  C         -2.4110   16.0310   24.8640 C.2   252  ARG252      0.2260
    171  O         -1.2280   15.7230   24.8410 O.2   252  ARG252     -0.2867
    172  CB        -3.8470   13.9620   24.8410 C.3   252  ARG252      0.0307
    173  CG        -4.8230   13.0900   24.0510 C.3   252  ARG252      0.0489
    174  CD        -5.1840   11.8250   24.8010 C.3   252  ARG252      0.2205
    175  NE        -5.8040   12.1120   26.0910 N.pl3 252  ARG252     -0.0865
    176  CZ        -6.1770   11.1780   26.9620 C.cat 252  ARG252      0.5346
    177  NH1       -6.7330   11.5280   28.1140 N.pl3 252  ARG252      0.1354
    178  NH2       -5.9960    9.8940   26.6770 N.pl3 252  ARG252      0.1354
@<TRIPOS>BOND
     1    41    40    2
     2    40    39    1
     3    31    30    2
     4    38    39    1
     5    30    29    1
     6    39    42    1
     7    42    43    1
     8    29    28    1
     9    29    32    1
    10    24    23    2
    11    32    33    1
    12    23    22    1
    13    43    44   ar
    14    43    45   ar
    15    33    35   ar
    16    33    34   ar
    17    22    21    1
    18    22    25    1
    19    35    37   ar
    20    25    26    1
    21    25    27    1
    22    34    36   ar
    23    57    56    1
    24    12    13    2
    25    12    11    1
    26    37    36   ar
    27    11    14    1
    28    11    10    1
    29    54    56   ar
    30    54    52   ar
    31    56    55   ar
    32    14    15    1
    33    16    15   ar
    34    16    18   ar
    35    15    17   ar
    36    52    51   ar
    37    18    20   ar
    38    55    53   ar
    39   133   131   ar
    40   133   132   ar
    41    51    53   ar
    42    51    50    1
    43    17    19   ar
    44   131   129   ar
    45     9     7   am
    46    20    19   ar
    47     7     8    2
    48     7     6    1
    49     6     5    1
    50   140   138    1
    51   132   130   ar
    52   121   120    1
    53   121   122    1
    54    50    47    1
    55    66    64   am
    56   135   134    1
    57   135   138    1
    58   135   136    1
    59   129   128   ar
    60    46    47    1
    61   138   139    1
    62   120   119    1
    63     3     2    1
    64     3     4    2
    65   130   128   ar
    66     5     2    1
    67     2     1    1
    68    47    48    1
    69   128   127    1
    70   136   137    2
    71    64    65    2
    72    64    63    1
    73   119   118    1
    74   126   125    2
    75   149   147   ar
    76   149   151   ar
    77   117   116    2
    78   152   151    1
    79    62    63    1
    80    62    59    1
    81    49    48    2
    82   124   127    1
    83   124   125    1
    84   124   123    1
    85   108   106   am
    86    58    59    1
    87   147   146   ar
    88    59    60    1
    89   151   150   ar
    90   167   165    1
    91   116   123   am
    92   116   115    1
    93   118   115    1
    94   162   161    1
    95   162   163    2
    96   161   160    1
    97   161   164    1
    98   115   114    1
    99   106   107    2
   100   106   105    1
   101   160   155   am
   102    76    74   ar
   103    76    77   ar
   104   146   145    1
   105   146   148   ar
   106   158   157    1
   107   150   148   ar
   108   164   165    1
   109    60    67   am
   110    60    61    2
   111   165   166    1
   112    74    72   ar
   113   103   102    2
   114   145   142    1
   115    67    68    1
   116   142   143    1
   117   142   141    1
   118    77    75   ar
   119   105   104    1
   120   153   143   am
   121   153   154    1
   122   104   101    1
   123   155   154    1
   124   155   156    2
   125   143   144    2
   126   157   154    1
   127   157   159    1
   128   168   169    1
   129   101   102    1
   130   101   100    1
   131   102   109   am
   132    72    71    1
   133    72    73   ar
   134    75    73   ar
   135    70    69    2
   136    68    71    1
   137    68    69    1
   138   112   111    2
   139    84    83    1
   140   173   174    1
   141   173   172    1
   142   169   172    1
   143   169   170    1
   144   109   110    1
   145   111   110    1
   146    85    83    1
   147   110   113    1
   148    83    82    1
   149   174   175    1
   150   171   170    2
   151    99    97   am
   152    82    79    1
   153    98    97    2
   154    97    96    1
   155    79    78    1
   156    79    80    1
   157    96    93    1
   158   175   176    2
   159    95    94    2
   160   178   176    1
   161   176   177    1
   162    80    81    2
   163    94    93    1
   164    93    92    1
   165    91    90    1
   166    92    88   am
   167    86    87    1
   168    88    87    1
   169    88    89    2
   170    90    87    1
