@<TRIPOS>MOLECULE
tmp/1zp5A00.pdb
 180 178 0 0 0
SMALL
GASTEIGER

@<TRIPOS>ATOM
      1  N         -1.0540   29.6870   21.9080 N.3    72  SER72      -0.1217
      2  CA        -1.7650   29.2780   20.7250 C.3    72  SER72       0.1889
      3  C         -1.7700   27.8230   21.1590 C.2    72  SER72       0.2288
      4  O         -1.1240   26.9800   20.5540 O.2    72  SER72      -0.2866
      5  CB        -0.9370   29.4760   19.4610 C.3    72  SER72       0.2089
      6  OG        -1.7860   29.4310   18.3300 O.3    72  SER72      -0.2183
      7  N         -7.7920   18.3140   14.5610 N.3    79  GLY79      -0.1210
      8  CA        -7.9840   19.7500   14.6500 C.3    79  GLY79       0.1956
      9  C         -6.6840   20.4420   14.2750 C.2    79  GLY79       0.2612
     10  O         -6.1910   20.2560   13.1650 O.2    79  GLY79      -0.2717
     11  N         -6.1310   21.2340   15.1910 N.am   80  ILE80      -0.1965
     12  CA        -4.8710   21.9410   14.9500 C.3    80  ILE80       0.1727
     13  C         -3.7080   20.9540   14.9870 C.2    80  ILE80       0.2616
     14  O         -3.3920   20.4150   16.0340 O.2    80  ILE80      -0.2715
     15  CB        -4.6100   23.0140   16.0300 C.3    80  ILE80       0.0290
     16  CG1       -5.7640   24.0160   16.0700 C.3    80  ILE80       0.0022
     17  CG2       -3.2770   23.7150   15.7600 C.3    80  ILE80       0.0023
     18  CD1       -5.9860   24.7540   14.7830 C.3    80  ILE80       0.0001
     19  N         -3.0490   20.7330   13.8590 N.am   81  LEU81      -0.1963
     20  CA        -1.9470   19.7810   13.8220 C.3    81  LEU81       0.1728
     21  C         -0.6300   20.3890   14.2670 C.2    81  LEU81       0.2616
     22  O          0.2210   19.7140   14.8510 O.2    81  LEU81      -0.2715
     23  CB        -1.7830   19.2180   12.4120 C.3    81  LEU81       0.0311
     24  CG        -2.9930   18.5150   11.8000 C.3    81  LEU81       0.0022
     25  CD1       -2.5760   17.8470   10.4960 C.3    81  LEU81       0.0001
     26  CD2       -3.5270   17.4820   12.7760 C.3    81  LEU81       0.0001
     27  N         -0.4700   21.6730   13.9810 N.am   82  ALA82      -0.1963
     28  CA         0.7460   22.3790   14.3280 C.3    82  ALA82       0.1728
     29  C          0.5720   23.8290   13.9310 C.2    82  ALA82       0.2616
     30  O         -0.4640   24.2210   13.4100 O.2    82  ALA82      -0.2715
     31  CB         1.9200   21.7790   13.5690 C.3    82  ALA82       0.0334
     32  N          1.5920   24.6260   14.2000 N.am   83  HIS83      -0.1959
     33  CA         1.5760   26.0220   13.8100 C.3    83  HIS83       0.1787
     34  C          2.9930   26.5350   13.8430 C.2    83  HIS83       0.2620
     35  O          3.8890   25.8980   14.3980 O.2    83  HIS83      -0.2715
     36  CB         0.6620   26.8590   14.7140 C.3    83  HIS83       0.0785
     37  CG         1.0050   26.7910   16.1670 C.ar   83  HIS83       0.0821
     38  ND1        0.0430   26.6760   17.1450 N.ar   83  HIS83      -0.2267
     39  CD2        2.1940   26.8490   16.8120 C.ar   83  HIS83       0.1154
     40  CE1        0.6220   26.6630   18.3290 C.ar   83  HIS83       0.1986
     41  NE2        1.9280   26.7680   18.1550 N.ar   83  HIS83      -0.2212
     42  N          3.2010   27.6810   13.2230 N.am   84  ALA84      -0.1977
     43  CA         4.5210   28.2580   13.1750 C.3    84  ALA84       0.1597
     44  C          4.3510   29.7580   13.1930 C.2    84  ALA84       0.2287
     45  O          3.2700   30.2760   12.9120 O.2    84  ALA84      -0.2864
     46  CB         5.2350   27.8160   11.9120 C.3    84  ALA84       0.0319
     47  N          5.0430   16.4110    5.5420 N.3   114  LEU114     -0.1231
     48  CA         4.1020   17.3520    4.9440 C.3   114  LEU114      0.1693
     49  C          3.7130   18.5000    5.8680 C.2   114  LEU114      0.2591
     50  O          3.6910   19.6570    5.4480 O.2   114  LEU114     -0.2718
     51  CB         2.8270   16.6270    4.4920 C.3   114  LEU114      0.0284
     52  CG         2.9270   15.7710    3.2230 C.3   114  LEU114      0.0019
     53  CD1        1.5550   15.2370    2.8620 C.3   114  LEU114      0.0001
     54  CD2        3.4660   16.6090    2.0810 C.3   114  LEU114      0.0001
     55  N          3.3940   18.1870    7.1200 N.am  115  VAL115     -0.1980
     56  CA         2.9970   19.2320    8.0580 C.3   115  VAL115      0.1595
     57  C          4.1790   20.1550    8.3440 C.2   115  VAL115      0.2287
     58  O          4.0370   21.3800    8.3460 O.2   115  VAL115     -0.2864
     59  CB         2.4640   18.6350    9.3930 C.3   115  VAL115      0.0276
     60  CG1        2.1560   19.7570   10.3840 C.3   115  VAL115      0.0022
     61  CG2        1.1970   17.8250    9.1340 C.3   115  VAL115      0.0022
     62  N          4.7030   22.4420    5.5040 N.3   118  HIS118     -0.1226
     63  CA         3.7010   23.4860    5.5470 C.3   118  HIS118      0.1752
     64  C          4.0650   24.5380    6.5740 C.2   118  HIS118      0.2595
     65  O          4.0870   25.7320    6.2750 O.2   118  HIS118     -0.2718
     66  CB         2.3460   22.8910    5.9100 C.3   118  HIS118      0.0759
     67  CG         1.2650   23.9100    6.0570 C.ar  118  HIS118      0.0818
     68  ND1        0.4940   24.3380    4.9960 N.ar  118  HIS118     -0.2268
     69  CD2        0.8300   24.5960    7.1400 C.ar  118  HIS118      0.1154
     70  CE1       -0.3730   25.2380    5.4220 C.ar  118  HIS118      0.1986
     71  NE2       -0.1900   25.4120    6.7180 N.ar  118  HIS118     -0.2212
     72  N          4.3450   24.0930    7.7950 N.am  119  GLU119     -0.1979
     73  CA         4.6980   25.0180    8.8580 C.3   119  GLU119      0.1602
     74  C          5.9330   25.8410    8.5240 C.2   119  GLU119      0.2287
     75  O          5.9740   27.0390    8.8020 O.2   119  GLU119     -0.2864
     76  CB         4.9120   24.2650   10.1730 C.3   119  GLU119      0.0415
     77  CG         3.6550   23.5630   10.6950 C.3   119  GLU119      0.1163
     78  CD         2.4500   24.4770   10.7030 C.2   119  GLU119      0.3649
     79  OE1        2.6250   25.6890   10.9460 O.co2 119  GLU119     -0.2457
     80  OE2        1.3260   23.9870   10.4700 O.co2 119  GLU119     -0.2457
     81  N          5.3790   28.9150    6.7200 N.3   122  HIS122     -0.1241
     82  CA         5.0300   30.0220    7.6120 C.3   122  HIS122      0.1621
     83  C          6.2900   30.5760    8.2640 C.2   122  HIS122      0.2264
     84  O          6.4530   31.7900    8.3940 O.2   122  HIS122     -0.2867
     85  CB         4.0710   29.5560    8.7120 C.3   122  HIS122      0.0745
     86  CG         2.6960   29.2510    8.2190 C.ar  122  HIS122      0.0817
     87  ND1        1.9770   30.1330    7.4410 N.ar  122  HIS122     -0.2268
     88  CD2        1.9060   28.1660    8.3880 C.ar  122  HIS122      0.1154
     89  CE1        0.8040   29.6030    7.1500 C.ar  122  HIS122      0.1986
     90  NE2        0.7360   28.4110    7.7110 N.ar  122  HIS122     -0.2212
     91  N         -1.1910   31.4410    4.0680 N.3   128  HIS128     -0.1241
     92  CA        -1.9350   30.3620    3.4470 C.3   128  HIS128      0.1621
     93  C         -2.2890   30.7070    2.0140 C.2   128  HIS128      0.2264
     94  O         -2.3980   31.8750    1.6530 O.2   128  HIS128     -0.2867
     95  CB        -3.2110   30.0900    4.2320 C.3   128  HIS128      0.0745
     96  CG        -2.9910   29.2890    5.4720 C.ar  128  HIS128      0.0817
     97  ND1       -3.7460   29.4610    6.6110 N.ar  128  HIS128     -0.2268
     98  CD2       -2.1280   28.2820    5.7410 C.ar  128  HIS128      0.1154
     99  CE1       -3.3580   28.5950    7.5290 C.ar  128  HIS128      0.1986
    100  NE2       -2.3780   27.8660    7.0260 N.ar  128  HIS128     -0.2212
    101  N         -1.8610   23.4930   -3.2940 N.3   134  ALA134     -0.1231
    102  CA        -0.6740   24.0840   -2.6960 C.3   134  ALA134      0.1694
    103  C         -0.3920   23.5440   -1.2940 C.2   134  ALA134      0.2591
    104  O         -1.3070   23.2370   -0.5310 O.2   134  ALA134     -0.2718
    105  CB        -0.8240   25.5990   -2.6430 C.3   134  ALA134      0.0304
    106  N          0.8880   23.4330   -0.9620 N.am  135  LEU135     -0.1980
    107  CA         1.3010   22.9550    0.3500 C.3   135  LEU135      0.1596
    108  C          0.7960   23.9270    1.4190 C.2   135  LEU135      0.2287
    109  O          0.4380   23.5300    2.5310 O.2   135  LEU135     -0.2864
    110  CB         2.8290   22.8790    0.4040 C.3   135  LEU135      0.0297
    111  CG         3.4830   22.7010    1.7710 C.3   135  LEU135      0.0022
    112  CD1        3.1090   21.3440    2.3530 C.3   135  LEU135      0.0001
    113  CD2        4.9900   22.8180    1.6190 C.3   135  LEU135      0.0001
    114  N         -1.9260   25.3970    1.5580 N.3   137  TYR137     -0.1228
    115  CA        -3.3840   25.4040    1.6490 C.3   137  TYR137      0.1721
    116  C         -3.6750   25.3230    3.1470 C.2   137  TYR137      0.2437
    117  O         -2.9200   24.7000    3.8890 O.2   137  TYR137     -0.2733
    118  CB        -3.9720   24.1860    0.9290 C.3   137  TYR137      0.0547
    119  CG        -5.4770   24.2330    0.7920 C.ar  137  TYR137     -0.0200
    120  CD1       -6.1030   25.3260    0.1920 C.ar  137  TYR137     -0.0009
    121  CD2       -6.2800   23.1990    1.2820 C.ar  137  TYR137     -0.0009
    122  CE1       -7.4920   25.3970    0.0870 C.ar  137  TYR137      0.0417
    123  CE2       -7.6790   23.2590    1.1780 C.ar  137  TYR137      0.0417
    124  CZ        -8.2720   24.3640    0.5800 C.ar  137  TYR137      0.1957
    125  OH        -9.6410   24.4560    0.4670 O.3   137  TYR137     -0.2866
    126  N         -4.7620   25.9530    3.6130 N.am  138  PRO138     -0.2718
    127  CA        -5.0760   25.9110    5.0430 C.3   138  PRO138      0.1535
    128  C         -5.2940   24.5310    5.6400 C.2   138  PRO138      0.2599
    129  O         -4.9550   24.3030    6.7980 O.2   138  PRO138     -0.2715
    130  CB        -6.3240   26.7790    5.1490 C.3   138  PRO138      0.0310
    131  CG        -6.1520   27.7520    4.0350 C.3   138  PRO138      0.0237
    132  CD        -5.6880   26.8560    2.9110 C.3   138  PRO138      0.0939
    133  N         -5.8570   23.6120    4.8670 N.am  139  ASN139     -0.1959
    134  CA        -6.1160   22.2770    5.3960 C.3   139  ASN139      0.1819
    135  C         -5.1690   21.1920    4.9380 C.2   139  ASN139      0.2621
    136  O         -4.7700   21.1320    3.7790 O.2   139  ASN139     -0.2715
    137  CB        -7.5460   21.8410    5.0870 C.3   139  ASN139      0.1195
    138  CG        -8.5720   22.6760    5.8160 C.2   139  ASN139      0.2630
    139  OD1       -8.3360   23.1180    6.9420 O.2   139  ASN139     -0.2716
    140  ND2       -9.7230   22.8870    5.1880 N.am  139  ASN139     -0.0877
    141  N         -4.8200   20.3340    5.8860 N.am  140  TYR140     -0.1960
    142  CA        -3.9450   19.2100    5.6460 C.3   140  TYR140      0.1771
    143  C         -4.5660   18.2890    4.6130 C.2   140  TYR140      0.2619
    144  O         -5.7270   17.9080    4.7180 O.2   140  TYR140     -0.2715
    145  CB        -3.7090   18.4590    6.9530 C.3   140  TYR140      0.0574
    146  CG        -2.9750   17.1580    6.7840 C.ar  140  TYR140     -0.0198
    147  CD1       -3.6680   15.9680    6.5630 C.ar  140  TYR140     -0.0009
    148  CD2       -1.5860   17.1160    6.8270 C.ar  140  TYR140     -0.0009
    149  CE1       -2.9950   14.7690    6.3900 C.ar  140  TYR140      0.0417
    150  CE2       -0.9010   15.9270    6.6520 C.ar  140  TYR140      0.0417
    151  CZ        -1.6090   14.7570    6.4350 C.ar  140  TYR140      0.1957
    152  OH        -0.9230   13.5870    6.2510 O.3   140  TYR140     -0.2866
    153  N         -3.7720   17.9480    3.6080 N.am  141  ALA141     -0.1977
    154  CA        -4.1940   17.0680    2.5330 C.3   141  ALA141      0.1597
    155  C         -2.9350   16.3540    2.0850 C.2   141  ALA141      0.2287
    156  O         -2.0500   16.9680    1.4910 O.2   141  ALA141     -0.2864
    157  CB        -4.7740   17.8790    1.3840 C.3   141  ALA141      0.0319
    158  N         -0.0990   14.3590    0.1540 N.3   143  ARG143     -0.1245
    159  CA         0.3790   14.3310   -1.2210 C.3   143  ARG143      0.1563
    160  C          1.5890   13.4050   -1.2350 C.2   143  ARG143      0.2260
    161  O          2.3350   13.3450   -0.2570 O.2   143  ARG143     -0.2867
    162  CB         0.7990   15.7280   -1.6710 C.3   143  ARG143      0.0307
    163  CG        -0.3530   16.6850   -1.8960 C.3   143  ARG143      0.0489
    164  CD        -0.9590   16.5330   -3.2840 C.3   143  ARG143      0.2205
    165  NE        -1.9170   17.6000   -3.5500 N.pl3 143  ARG143     -0.0865
    166  CZ        -3.1940   17.5700   -3.1870 C.cat 143  ARG143      0.5346
    167  NH1       -3.6800   16.5160   -2.5460 N.pl3 143  ARG143      0.1354
    168  NH2       -3.9810   18.6060   -3.4460 N.pl3 143  ARG143      0.1354
    169  N          7.6270   13.8170   -3.6380 N.3   148  TYR148     -0.1241
    170  CA         6.9780   15.0870   -3.3430 C.3   148  TYR148      0.1605
    171  C          7.8420   16.2990   -3.6300 C.2   148  TYR148      0.2264
    172  O          8.8130   16.5670   -2.9220 O.2   148  TYR148     -0.2867
    173  CB         6.5310   15.1510   -1.8850 C.3   148  TYR148      0.0534
    174  CG         5.6430   16.3400   -1.6050 C.ar  148  TYR148     -0.0201
    175  CD1        4.3820   16.4370   -2.1880 C.ar  148  TYR148     -0.0009
    176  CD2        6.0690   17.3780   -0.7790 C.ar  148  TYR148     -0.0009
    177  CE1        3.5640   17.5390   -1.9580 C.ar  148  TYR148      0.0417
    178  CE2        5.2570   18.4870   -0.5400 C.ar  148  TYR148      0.0417
    179  CZ         4.0060   18.5580   -1.1340 C.ar  148  TYR148      0.1957
    180  OH         3.1890   19.6390   -0.9060 O.3   148  TYR148     -0.2866
@<TRIPOS>BOND
     1   169   170    1
     2   171   170    1
     3   171   172    2
     4   165   164    1
     5   165   166    2
     6   168   166    1
     7   170   173    1
     8   101   102    1
     9   164   163    1
    10   166   167    1
    11   102   105    1
    12   102   103    1
    13   175   177   ar
    14   175   174   ar
    15   177   179   ar
    16   163   162    1
    17   173   174    1
    18   162   159    1
    19   174   176   ar
    20   103   106   am
    21   103   104    2
    22   160   159    1
    23   160   161    2
    24   159   158    1
    25   179   180    1
    26   179   178   ar
    27   106   107    1
    28   176   178   ar
    29   122   120   ar
    30   122   124   ar
    31   120   119   ar
    32   107   110    1
    33   107   108    1
    34   110   111    1
    35   125   124    1
    36   124   123   ar
    37   119   118    1
    38   119   121   ar
    39   118   115    1
    40   123   121   ar
    41   157   154    1
    42   108   109    2
    43   156   155    2
    44   114   115    1
    45   113   111    1
    46   115   116    1
    47    94    93    2
    48   111   112    1
    49    93    92    1
    50    54    52    1
    51   155   154    1
    52   154   153    1
    53    53    52    1
    54   132   126    1
    55   132   131    1
    56   116   126   am
    57   116   117    2
    58    52    51    1
    59    92    91    1
    60    92    95    1
    61   153   143   am
    62   126   127    1
    63   136   135    2
    64   131   130    1
    65    95    96    1
    66    51    48    1
    67   143   144    2
    68   143   142    1
    69   133   134    1
    70   133   128   am
    71   135   134    1
    72   135   141   am
    73    48    47    1
    74    48    49    1
    75    68    70   ar
    76    68    67   ar
    77   127   130    1
    78   127   128    1
    79   137   134    1
    80   137   138    1
    81   140   138   am
    82    70    71   ar
    83    50    49    2
    84    96    98   ar
    85    96    97   ar
    86    62    63    1
    87    63    66    1
    88    63    64    1
    89   128   129    2
    90   142   141    1
    91   142   145    1
    92    98   100   ar
    93   138   139    2
    94    49    55   am
    95    66    67    1
    96    67    69   ar
    97   152   151    1
    98    65    64    2
    99   149   151   ar
   100   149   147   ar
   101   151   150   ar
   102   147   146   ar
   103    64    72   am
   104    97    99   ar
   105   150   148   ar
   106    71    69   ar
   107    81    82    1
   108   146   148   ar
   109   146   145    1
   110   100    99   ar
   111    55    56    1
   112    89    87   ar
   113    89    90   ar
   114    87    86   ar
   115    82    83    1
   116    82    85    1
   117    90    88   ar
   118    72    73    1
   119    56    57    1
   120    56    59    1
   121    86    88   ar
   122    86    85    1
   123    83    84    2
   124    57    58    2
   125    74    75    2
   126    74    73    1
   127    73    76    1
   128    61    59    1
   129    59    60    1
   130    76    77    1
   131    80    78   ar
   132    25    24    1
   133    77    78    1
   134    78    79   ar
   135    24    23    1
   136    24    26    1
   137    46    43    1
   138    23    20    1
   139    45    44    2
   140    10     9    2
   141    43    44    1
   142    43    42    1
   143    42    34   am
   144    30    29    2
   145    31    28    1
   146    33    34    1
   147    33    32    1
   148    33    36    1
   149    20    19    1
   150    20    21    1
   151    34    35    2
   152    19    13   am
   153    29    32   am
   154    29    28    1
   155    27    21   am
   156    27    28    1
   157    21    22    2
   158     9     8    1
   159     9    11   am
   160     7     8    1
   161    36    37    1
   162    18    16    1
   163    12    13    1
   164    12    11    1
   165    12    15    1
   166    13    14    2
   167    17    15    1
   168    15    16    1
   169    37    39   ar
   170    37    38   ar
   171    39    41   ar
   172    38    40   ar
   173    41    40   ar
   174     6     5    1
   175     5     2    1
   176     4     3    2
   177     2     3    1
   178     2     1    1
