@<TRIPOS>MOLECULE
tmp/1zp8A00.pdb
 120 114 0 0 0
SMALL
GASTEIGER

@<TRIPOS>ATOM
      1  N         -4.6890   26.1220   29.8880 N.3    23  LEU23      -0.1245
      2  CA        -5.8130   26.0370   28.9300 C.3    23  LEU23       0.1561
      3  C         -7.1230   26.1220   29.6710 C.2    23  LEU23       0.2260
      4  O         -7.3450   25.2670   30.5480 O.2    23  LEU23      -0.2867
      5  CB        -5.5880   24.7450   28.1630 C.3    23  LEU23       0.0270
      6  CG        -5.8330   24.6110   26.6690 C.3    23  LEU23       0.0019
      7  CD1       -6.1450   23.1580   26.2600 C.3    23  LEU23       0.0001
      8  CD2       -6.9680   25.5070   26.2070 C.3    23  LEU23       0.0001
      9  N        -10.5090   25.0670   30.2810 N.3    25  ASP25      -0.1239
     10  CA       -11.0410   23.8890   29.5780 C.3    25  ASP25       0.1674
     11  C        -12.3770   23.3980   30.1180 C.2    25  ASP25       0.2266
     12  O        -12.5220   22.7340   31.1550 O.2    25  ASP25      -0.2867
     13  CB        -9.9330   22.8140   29.6410 C.3    25  ASP25       0.1410
     14  CG       -10.3550   21.4850   29.0510 C.2    25  ASP25       0.3668
     15  OD1      -11.4450   21.2980   28.4570 O.co2  25  ASP25      -0.2456
     16  OD2       -9.5640   20.5320   29.1440 O.co2  25  ASP25      -0.2456
     17  N        -14.2370   21.1380   29.1390 N.3    27  GLY27      -0.1210
     18  CA       -14.6240   19.7250   29.2260 C.3    27  GLY27       0.1956
     19  C        -13.8790   19.0190   30.3370 C.2    27  GLY27       0.2612
     20  O        -13.8990   17.7910   30.3790 O.2    27  GLY27      -0.2717
     21  N        -13.2150   19.7100   31.2190 N.am   28  ALA28      -0.1965
     22  CA       -12.4620   19.0800   32.3240 C.3    28  ALA28       0.1728
     23  C        -13.2070   19.3430   33.6090 C.2    28  ALA28       0.2616
     24  O        -13.4760   20.4860   33.9810 O.2    28  ALA28      -0.2715
     25  CB       -11.0110   19.5840   32.4240 C.3    28  ALA28       0.0334
     26  N        -13.5870   18.2750   34.3590 N.am   29  ASP29      -0.1957
     27  CA       -14.1970   18.5460   35.6270 C.3    29  ASP29       0.1840
     28  C        -13.1910   19.1200   36.6410 C.2    29  ASP29       0.2622
     29  O        -13.6320   19.9370   37.4480 O.2    29  ASP29      -0.2715
     30  CB       -14.7270   17.3080   36.3210 C.3    29  ASP29       0.1450
     31  CG       -15.7190   16.5210   35.5050 C.2    29  ASP29       0.3671
     32  OD1      -16.4060   17.1120   34.6620 O.co2  29  ASP29      -0.2456
     33  OD2      -15.7510   15.2990   35.7610 O.co2  29  ASP29      -0.2456
     34  N        -11.9630   18.6120   36.4560 N.am   30  ASP30      -0.1971
     35  CA       -10.8970   18.9870   37.3900 C.3    30  ASP30       0.1709
     36  C         -9.7150   19.6810   36.7130 C.2    30  ASP30       0.2293
     37  O         -9.5260   19.7010   35.5090 O.2    30  ASP30      -0.2864
     38  CB       -10.3400   17.7980   38.1470 C.3    30  ASP30       0.1436
     39  CG       -11.3020   16.8280   38.7800 C.2    30  ASP30       0.3671
     40  OD1      -12.3670   17.1340   39.3120 O.co2  30  ASP30      -0.2456
     41  OD2      -10.9270   15.6360   38.7300 O.co2  30  ASP30      -0.2456
     42  N         -5.8180   20.1510   36.1480 N.3    32  VAL32      -0.1245
     43  CA        -4.6750   19.2440   36.1630 C.3    32  VAL32       0.1561
     44  C         -3.4040   19.9380   35.6730 C.2    32  VAL32       0.2260
     45  O         -3.4070   20.4920   34.5790 O.2    32  VAL32      -0.2867
     46  CB        -4.9480   18.0240   35.2610 C.3    32  VAL32       0.0252
     47  CG1       -3.9600   16.9390   35.6160 C.3    32  VAL32       0.0019
     48  CG2       -6.3960   17.5230   35.3680 C.3    32  VAL32       0.0019
     49  N         -6.1360    8.8760   40.4930 N.3    46  MET46      -0.1230
     50  CA        -6.1740    8.4380   39.0950 C.3    46  MET46       0.1702
     51  C         -7.2660    9.1690   38.3180 C.2    46  MET46       0.2592
     52  O         -8.4250    9.2840   38.7250 O.2    46  MET46      -0.2718
     53  CB        -6.4320    6.9500   38.9720 C.3    46  MET46       0.0401
     54  CG        -5.6510    6.2030   37.9190 C.3    46  MET46       0.0596
     55  SD        -4.6470    4.9120   38.7080 S.3    46  MET46      -0.1393
     56  CE        -5.6050    4.7270   40.2270 C.3    46  MET46       0.0692
     57  N         -6.9080    9.6930   37.1520 N.am   47  ILE47      -0.1966
     58  CA        -7.9420   10.3040   36.3350 C.3    47  ILE47       0.1727
     59  C         -7.8410    9.7370   34.9120 C.2    47  ILE47       0.2617
     60  O         -6.7000    9.4080   34.5440 O.2    47  ILE47      -0.2715
     61  CB        -7.8700   11.8280   36.1750 C.3    47  ILE47       0.0290
     62  CG1       -6.6670   12.2530   35.3400 C.3    47  ILE47       0.0022
     63  CG2       -7.8890   12.5240   37.5200 C.3    47  ILE47       0.0023
     64  CD1       -6.4810   13.7620   35.3570 C.3    47  ILE47       0.0001
     65  N         -8.9880    9.6740   34.2430 N.am   48  GLY48      -0.1940
     66  CA        -9.0000    9.1790   32.8610 C.3    48  GLY48       0.2014
     67  C         -9.3450   10.2430   31.8260 C.2    48  GLY48       0.2639
     68  O        -10.0350   11.2370   32.0240 O.2    48  GLY48      -0.2714
     69  N         -8.8580   10.0820   30.5940 N.am   49  GLY49      -0.1939
     70  CA        -9.1090   11.0430   29.5140 C.3    49  GLY49       0.2014
     71  C         -9.1250   10.3180   28.1940 C.2    49  GLY49       0.2638
     72  O         -9.2550    9.0910   28.1130 O.2    49  GLY49      -0.2714
     73  N         -8.9830   11.0360   27.0650 N.am   50  ILE50      -0.1977
     74  CA        -8.9180   10.2220   25.8610 C.3    50  ILE50       0.1596
     75  C         -7.5830    9.5070   25.9050 C.2    50  ILE50       0.2287
     76  O         -6.4890    9.9960   26.2340 O.2    50  ILE50      -0.2864
     77  CB        -9.0680   11.0580   24.5890 C.3    50  ILE50       0.0276
     78  CG1      -10.5090   11.1100   24.0820 C.3    50  ILE50       0.0022
     79  CG2       -8.1450   10.5480   23.5090 C.3    50  ILE50       0.0022
     80  CD1      -10.7970   12.3380   23.2360 C.3    50  ILE50       0.0001
     81  N         -5.5160    6.2350   31.3620 N.3    53  PHE53      -0.1241
     82  CA        -5.5500    6.7900   32.6910 C.3    53  PHE53       0.1605
     83  C         -4.2340    7.3620   33.2070 C.2    53  PHE53       0.2264
     84  O         -3.2060    6.9080   32.7600 O.2    53  PHE53      -0.2867
     85  CB        -5.8960    5.5150   33.6210 C.3    53  PHE53       0.0534
     86  CG        -7.3640    5.6570   33.7800 C.ar   53  PHE53      -0.0203
     87  CD1       -8.2300    5.1380   32.8470 C.ar   53  PHE53      -0.0042
     88  CD2       -7.9050    6.3590   34.8470 C.ar   53  PHE53      -0.0042
     89  CE1       -9.5910    5.3180   32.9680 C.ar   53  PHE53      -0.0003
     90  CE2       -9.2480    6.5820   34.9550 C.ar   53  PHE53      -0.0003
     91  CZ       -10.1050    6.0600   34.0070 C.ar   53  PHE53      -0.0000
     92  N          0.1930   15.2040   32.7620 N.3    80  THR80      -0.1204
     93  CA        -0.6850   15.6830   31.6830 C.3    80  THR80       0.1979
     94  C          0.2150   16.3760   30.6750 C.2    80  THR80       0.2460
     95  O          1.2250   16.9970   30.9970 O.2    80  THR80      -0.2732
     96  CB        -1.8030   16.6740   32.0640 C.3    80  THR80       0.1783
     97  OG1       -2.3780   17.2700   30.8870 O.3    80  THR80      -0.2211
     98  CG2       -1.1920   17.7880   32.8710 C.3    80  THR80       0.0376
     99  N         -0.0970   16.3030   29.3930 N.am   81  PRO81      -0.2717
    100  CA         0.7590   17.0070   28.4300 C.3    81  PRO81       0.1535
    101  C          0.4320   18.4900   28.2420 C.2    81  PRO81       0.2595
    102  O          1.1280   19.1780   27.4480 O.2    81  PRO81      -0.2716
    103  CB         0.4330   16.2570   27.1330 C.3    81  PRO81       0.0310
    104  CG        -1.0070   15.9270   27.3140 C.3    81  PRO81       0.0237
    105  CD        -1.2020   15.5640   28.7840 C.3    81  PRO81       0.0939
    106  N         -0.6030   18.9500   28.9610 N.am   82  VAL82      -0.2031
    107  CA        -0.9590   20.3640   28.8580 C.3    82  VAL82       0.1282
    108  C         -1.4930   20.8500   30.2000 C.3    82  VAL82       0.2035
    109  O         -2.2220   20.0090   30.7530 O.3    82  VAL82      -0.2185
    110  CB        -2.0610   20.6680   27.8460 C.3    82  VAL82       0.0226
    111  CG1       -3.0740   19.5600   27.9580 C.3    82  VAL82       0.0018
    112  CG2       -2.7650   21.9940   28.0880 C.3    82  VAL82       0.0018
    113  N         -4.1660   22.3490   32.2880 N.3    84  ILE84      -0.1301
    114  CA        -5.5770   22.4690   32.1570 C.3    84  ILE84       0.1246
    115  C         -6.3070   23.0960   33.3390 C.3    84  ILE84       0.2009
    116  O         -6.1000   22.4570   34.3840 O.3    84  ILE84      -0.2188
    117  CB        -6.1830   21.0270   32.0550 C.3    84  ILE84       0.0202
    118  CG1       -5.7240   20.1050   30.9210 C.3    84  ILE84       0.0015
    119  CG2       -7.7190   21.1320   32.0360 C.3    84  ILE84       0.0016
    120  CD1       -6.2960   18.6890   31.2300 C.3    84  ILE84       0.0000
@<TRIPOS>BOND
     1    80    78    1
     2    79    77    1
     3    78    77    1
     4    77    74    1
     5    74    75    1
     6    74    73    1
     7    75    76    2
     8     8     6    1
     9     7     6    1
    10     6     5    1
    11    73    71   am
    12   103   104    1
    13   103   100    1
    14   104   105    1
    15   102   101    2
    16   110   111    1
    17   110   112    1
    18   110   107    1
    19    72    71    2
    20     5     2    1
    21    71    70    1
    22   101   100    1
    23   101   106   am
    24   100    99    1
    25    15    14   ar
    26   105    99    1
    27   107   106    1
    28   107   108    1
    29     2     3    1
    30     2     1    1
    31    14    16   ar
    32    14    13    1
    33    17    18    1
    34    18    19    1
    35    99    94   am
    36    70    69    1
    37    10    13    1
    38    10    11    1
    39    10     9    1
    40     3     4    2
    41    11    12    2
    42   108   109    1
    43    19    20    2
    44    19    21   am
    45    69    67   am
    46    94    95    2
    47    94    93    1
    48    97    96    1
    49   118   120    1
    50   118   117    1
    51    21    22    1
    52    81    82    1
    53    93    96    1
    54    93    92    1
    55    67    68    2
    56    67    66    1
    57   119   117    1
    58   117   114    1
    59    96    98    1
    60   114   113    1
    61   114   115    1
    62    22    25    1
    63    22    23    1
    64    82    83    1
    65    82    85    1
    66    84    83    2
    67    87    89   ar
    68    87    86   ar
    69    66    65    1
    70    89    91   ar
    71   115   116    1
    72    23    24    2
    73    23    26   am
    74    85    86    1
    75    86    88   ar
    76    91    90   ar
    77    65    59   am
    78    26    27    1
    79    60    59    2
    80    45    44    2
    81    32    31   ar
    82    88    90   ar
    83    59    58    1
    84    46    48    1
    85    46    47    1
    86    46    43    1
    87    62    64    1
    88    62    61    1
    89    31    33   ar
    90    31    30    1
    91    37    36    2
    92    27    30    1
    93    27    28    1
    94    44    43    1
    95    42    43    1
    96    61    58    1
    97    61    63    1
    98    58    57    1
    99    34    28   am
   100    34    35    1
   101    28    29    2
   102    36    35    1
   103    57    51   am
   104    35    38    1
   105    54    55    1
   106    54    53    1
   107    38    39    1
   108    51    52    2
   109    51    50    1
   110    55    56    1
   111    41    39   ar
   112    39    40   ar
   113    53    50    1
   114    50    49    1
