@<TRIPOS>MOLECULE
tmp/1zp9B00.pdb
 204 193 0 0 0
SMALL
GASTEIGER

@<TRIPOS>ATOM
      1  N          1.8240   -3.0180   32.6310 N.3    53  ILE53      -0.1231
      2  CA         2.8080   -3.6850   33.4870 C.3    53  ILE53       0.1692
      3  C          3.3350   -2.6540   34.4530 C.2    53  ILE53       0.2592
      4  O          3.5670   -2.9460   35.6300 O.2    53  ILE53      -0.2718
      5  CB         4.0010   -4.2990   32.6430 C.3    53  ILE53       0.0266
      6  CG1        3.5190   -5.4840   31.7820 C.3    53  ILE53       0.0019
      7  CG2        5.1890   -4.6930   33.5920 C.3    53  ILE53       0.0020
      8  CD1        4.5820   -6.0950   30.7560 C.3    53  ILE53       0.0001
      9  N          3.5730   -1.4490   33.9390 N.am   54  SER54      -0.1952
     10  CA         4.1680   -0.3930   34.7580 C.3    54  SER54       0.1924
     11  C          3.8170    0.9260   34.1620 C.2    54  SER54       0.2314
     12  O          3.7540    1.0240   32.9520 O.2    54  SER54      -0.2863
     13  CB         5.6920   -0.4920   34.7330 C.3    54  SER54       0.2116
     14  OG         6.2170    0.2760   35.7940 O.3    54  SER54      -0.2180
     15  N          5.0200    5.1090   34.6030 N.3    56  GLY56      -0.1225
     16  CA         6.0700    5.9290   35.2320 C.3    56  GLY56       0.1811
     17  C          6.0880    7.3900   34.8280 C.2    56  GLY56       0.2280
     18  O          5.2600    7.8270   34.0370 O.2    56  GLY56      -0.2866
     19  N          8.6640    8.5700   33.1930 N.3    58  GLU58      -0.1231
     20  CA         9.3910    8.6090   31.9140 C.3    58  GLU58       0.1699
     21  C          8.8500    7.6090   30.9090 C.2    58  GLU58       0.2592
     22  O          8.8460    7.8810   29.7180 O.2    58  GLU58      -0.2718
     23  CB        10.8760    8.3520   32.1470 C.3    58  GLU58       0.0402
     24  CG        11.4410    9.2730   33.2320 C.3    58  GLU58       0.1161
     25  CD        12.9590    9.4380   33.1550 C.2    58  GLU58       0.3649
     26  OE1       13.6570    8.4030   32.9950 O.co2  58  GLU58      -0.2457
     27  OE2       13.4420   10.6100   33.2830 O.co2  58  GLU58      -0.2457
     28  N          8.3460    6.4840   31.3980 N.am   59  ALA59      -0.1980
     29  CA         7.9770    5.3790   30.5120 C.3    59  ALA59       0.1597
     30  C          6.8170    4.5510   31.0510 C.2    59  ALA59       0.2287
     31  O          6.6090    4.4480   32.2810 O.2    59  ALA59      -0.2864
     32  CB         9.1730    4.4810   30.2870 C.3    59  ALA59       0.0319
     33  N          5.0560    0.5870   30.4190 N.3    61  VAL61      -0.1245
     34  CA         5.3850   -0.7670   29.9220 C.3    61  VAL61       0.1561
     35  C          4.1130   -1.5780   29.8900 C.2    61  VAL61       0.2260
     36  O          3.3430   -1.5620   30.8530 O.2    61  VAL61      -0.2867
     37  CB         6.4680   -1.4650   30.8280 C.3    61  VAL61       0.0252
     38  CG1        6.8340   -2.8380   30.3110 C.3    61  VAL61       0.0019
     39  CG2        7.7470   -0.6200   30.8740 C.3    61  VAL61       0.0019
     40  N          7.2960   -7.3350   25.9110 N.3    75  ALA75      -0.1245
     41  CA         7.1280   -6.1730   26.7320 C.3    75  ALA75       0.1562
     42  C          7.2180   -4.9840   25.7740 C.2    75  ALA75       0.2260
     43  O          8.1140   -4.9150   24.9350 O.2    75  ALA75      -0.2867
     44  CB         8.1890   -6.1040   27.8050 C.3    75  ALA75       0.0290
     45  N          7.7450   -1.1990   25.7820 N.3    77  LYS77      -0.1245
     46  CA         8.1280   -0.0490   26.5600 C.3    77  LYS77       0.1561
     47  C          7.9530    1.2540   25.7700 C.2    77  LYS77       0.2260
     48  O          8.4050    1.3680   24.6370 O.2    77  LYS77      -0.2867
     49  CB         9.5410   -0.2240   27.1200 C.3    77  LYS77       0.0271
     50  CG        10.0100    1.0020   27.9240 C.3    77  LYS77       0.0035
     51  CD        11.2360    0.6380   28.7990 C.3    77  LYS77       0.0206
     52  CE        11.7530    1.8680   29.5490 C.3    77  LYS77       0.1093
     53  NZ        13.0500    1.5060   30.2400 N.3    77  LYS77      -0.1314
     54  N          8.2720    5.4670   25.8230 N.3    79  TYR79      -0.1241
     55  CA         8.6900    6.6890   26.4320 C.3    79  TYR79       0.1605
     56  C          7.6750    7.7910   26.2210 C.2    79  TYR79       0.2264
     57  O          7.1080    7.9440   25.1340 O.2    79  TYR79      -0.2867
     58  CB        10.1110    7.0850   25.9670 C.3    79  TYR79       0.0534
     59  CG        11.1770    6.2400   26.6240 C.ar   79  TYR79      -0.0201
     60  CD1       11.6370    6.5420   27.9020 C.ar   79  TYR79      -0.0009
     61  CD2       11.6920    5.1040   25.9730 C.ar   79  TYR79      -0.0009
     62  CE1       12.6120    5.7210   28.5340 C.ar   79  TYR79       0.0417
     63  CE2       12.6900    4.3040   26.5700 C.ar   79  TYR79       0.0417
     64  CZ        13.1320    4.6120   27.8520 C.ar   79  TYR79       0.1957
     65  OH        14.0940    3.8230   28.4540 O.3    79  TYR79      -0.2866
     66  N         16.7170    8.7690   22.7720 N.3    98  TRP98      -0.1241
     67  CA        16.7700    7.9620   24.0170 C.3    98  TRP98       0.1605
     68  C         16.2280    6.5260   23.7830 C.2    98  TRP98       0.2264
     69  O         16.7620    5.4910   24.2480 O.2    98  TRP98      -0.2867
     70  CB        15.9020    8.6730   25.0800 C.3    98  TRP98       0.0550
     71  CG        16.0820    8.1200   26.4470 C.ar   98  TRP98       0.0003
     72  CD1       15.3170    7.1570   27.0720 C.ar   98  TRP98       0.0946
     73  CD2       17.1260    8.4630   27.3660 C.ar   98  TRP98       0.0152
     74  NE1       15.8240    6.8990   28.3420 N.ar   98  TRP98      -0.2442
     75  CE2       16.9370    7.6690   28.5340 C.ar   98  TRP98       0.0810
     76  CE3       18.2110    9.3530   27.3120 C.ar   98  TRP98       0.0012
     77  CZ2       17.7830    7.7650   29.6380 C.ar   98  TRP98       0.0191
     78  CZ3       19.0340    9.4660   28.4140 C.ar   98  TRP98       0.0001
     79  CH2       18.8330    8.6670   29.5530 C.ar   98  TRP98       0.0015
     80  N         18.3830    3.0690   24.1010 N.3   102  GLU102     -0.1245
     81  CA        18.0910    1.8770   24.9170 C.3   102  GLU102      0.1567
     82  C         18.1580    0.6220   24.0460 C.2   102  GLU102      0.2260
     83  O         18.7420   -0.3570   24.4380 O.2   102  GLU102     -0.2867
     84  CB        16.6950    1.9690   25.5690 C.3   102  GLU102      0.0388
     85  CG        16.4600    0.8250   26.5030 C.3   102  GLU102      0.1160
     86  CD        15.2610    1.0070   27.4280 C.2   102  GLU102      0.3649
     87  OE1       14.3810    1.8490   27.1290 O.co2 102  GLU102     -0.2457
     88  OE2       15.2290    0.3170   28.4800 O.co2 102  GLU102     -0.2457
     89  N         16.6060   -8.6550   28.1100 N.3   117  PRO117     -0.2116
     90  CA        15.5540   -9.1450   27.2070 C.3   117  PRO117      0.1372
     91  C         16.0600   -9.0310   25.7890 C.2   117  PRO117      0.2244
     92  O         16.6600   -7.9960   25.4430 O.2   117  PRO117     -0.2868
     93  CB        14.3960   -8.1260   27.3990 C.3   117  PRO117      0.0268
     94  CG        14.5890   -7.5870   28.8030 C.3   117  PRO117      0.0207
     95  CD        16.1220   -7.5180   28.9340 C.3   117  PRO117      0.0892
     96  N         11.7270   -8.8550   24.4370 N.3   128  GLU128     -0.1231
     97  CA        11.2860  -10.0810   25.0700 C.3   128  GLU128      0.1699
     98  C         10.5850   -9.8000   26.3980 C.2   128  GLU128      0.2592
     99  O         11.1130   -9.0520   27.2390 O.2   128  GLU128     -0.2718
    100  CB        12.5080  -10.9320   25.3390 C.3   128  GLU128      0.0402
    101  CG        12.2120  -12.3870   25.6740 C.3   128  GLU128      0.1161
    102  CD        13.4950  -13.1040   26.1470 C.2   128  GLU128      0.3649
    103  OE1       13.4220  -14.3170   26.4870 O.co2 128  GLU128     -0.2457
    104  OE2       14.5780  -12.4560   26.1960 O.co2 128  GLU128     -0.2457
    105  N          9.3810  -10.3650   26.5610 N.am  129  PHE129     -0.1962
    106  CA         8.6780  -10.3220   27.8430 C.3   129  PHE129      0.1771
    107  C          9.3450  -11.2920   28.7990 C.2   129  PHE129      0.2619
    108  O          9.4250  -12.4910   28.4960 O.2   129  PHE129     -0.2715
    109  CB         7.2040  -10.7620   27.6720 C.3   129  PHE129      0.0574
    110  CG         6.4320  -10.7320   28.9430 C.ar  129  PHE129     -0.0200
    111  CD1        6.0750   -9.5230   29.5130 C.ar  129  PHE129     -0.0042
    112  CD2        6.0850  -11.9170   29.5940 C.ar  129  PHE129     -0.0042
    113  CE1        5.3400   -9.4920   30.7360 C.ar  129  PHE129     -0.0003
    114  CE2        5.3610  -11.8890   30.7940 C.ar  129  PHE129     -0.0003
    115  CZ         4.9940  -10.6760   31.3500 C.ar  129  PHE129     -0.0000
    116  N          9.7640  -10.7900   29.9610 N.am  130  ILE130     -0.1977
    117  CA        10.3780  -11.6150   30.9890 C.3   130  ILE130      0.1596
    118  C          9.3330  -11.9390   32.0730 C.2   130  ILE130      0.2287
    119  O          8.9670  -11.1020   32.8990 O.2   130  ILE130     -0.2864
    120  CB        11.6370  -10.9310   31.6150 C.3   130  ILE130      0.0276
    121  CG1       12.6530  -10.5130   30.5370 C.3   130  ILE130      0.0022
    122  CG2       12.3290  -11.8480   32.6400 C.3   130  ILE130      0.0022
    123  CD1       13.0720  -11.5870   29.5490 C.3   130  ILE130      0.0001
    124  N          4.7740  -10.9400   34.7170 N.3   136  PRO136     -0.2102
    125  CA         6.1230  -10.3980   34.7080 C.3   136  PRO136      0.1504
    126  C          6.9340  -10.9190   35.8670 C.2   136  PRO136      0.2575
    127  O          6.4170  -10.9800   36.9970 O.2   136  PRO136     -0.2718
    128  CB         5.9240   -8.8840   34.8830 C.3   136  PRO136      0.0282
    129  CG         4.4940   -8.6250   34.6560 C.3   136  PRO136      0.0208
    130  CD         3.7610   -9.9010   34.9540 C.3   136  PRO136      0.0893
    131  N          8.1780  -11.3080   35.5790 N.am  137  ALA137     -0.1980
    132  CA         9.1030  -11.7410   36.6020 C.3   137  ALA137      0.1597
    133  C          9.2780  -10.6240   37.6080 C.2   137  ALA137      0.2287
    134  O          9.2940   -9.4580   37.2160 O.2   137  ALA137     -0.2864
    135  CB        10.4440  -12.0700   35.9950 C.3   137  ALA137      0.0319
    136  N         11.1120   -8.0010   40.1570 N.3   139  THR139     -0.1218
    137  CA        12.4250   -7.3840   40.3520 C.3   139  THR139      0.1862
    138  C         12.9580   -7.9390   41.6600 C.2   139  THR139      0.2287
    139  O         12.1820   -8.5280   42.4520 O.2   139  THR139     -0.2866
    140  CB        12.3930   -5.8300   40.3300 C.3   139  THR139      0.1770
    141  OG1       11.4480   -5.3450   41.2880 O.3   139  THR139     -0.2211
    142  CG2       12.0220   -5.2810   38.9270 C.3   139  THR139      0.0375
    143  N         10.9780   -6.6590   44.3630 N.3   142  GLU142     -0.1245
    144  CA         9.6720   -7.2780   44.4680 C.3   142  GLU142      0.1567
    145  C          9.7560   -8.6880   45.0750 C.2   142  GLU142      0.2260
    146  O          8.8350   -9.1050   45.7660 O.2   142  GLU142     -0.2867
    147  CB         8.9660   -7.2900   43.0980 C.3   142  GLU142      0.0388
    148  CG         8.7050   -5.8780   42.5270 C.3   142  GLU142      0.1160
    149  CD         8.2680   -5.8430   41.0640 C.2   142  GLU142      0.3649
    150  OE1        7.7160   -4.7910   40.6480 O.co2 142  GLU142     -0.2457
    151  OE2        8.4670   -6.8300   40.3200 O.co2 142  GLU142     -0.2457
    152  N         22.3000    2.8280   36.1430 N.3   176  ASP176     -0.1239
    153  CA        21.1280    2.8690   37.0530 C.3   176  ASP176      0.1674
    154  C         20.8580    1.4320   37.5180 C.2   176  ASP176      0.2266
    155  O         19.6970    0.9820   37.6060 O.2   176  ASP176     -0.2867
    156  CB        19.8750    3.4480   36.3510 C.3   176  ASP176      0.1410
    157  CG        18.7160    3.7020   37.3310 C.2   176  ASP176      0.3668
    158  OD1       18.9530    3.6690   38.5720 O.co2 176  ASP176     -0.2456
    159  OD2       17.5670    3.9110   36.8720 O.co2 176  ASP176     -0.2456
    160  N         16.0640   -2.2360   41.8160 N.3   180  TYR180     -0.1227
    161  CA        14.8560   -1.8220   41.1230 C.3   180  TYR180      0.1736
    162  C         14.8790   -2.1980   39.6210 C.2   180  TYR180      0.2595
    163  O         13.8210   -2.2520   38.9840 O.2   180  TYR180     -0.2718
    164  CB        14.5630   -0.3200   41.3190 C.3   180  TYR180      0.0548
    165  CG        14.1760    0.0490   42.7370 C.ar  180  TYR180     -0.0200
    166  CD1       12.8510    0.1000   43.1350 C.ar  180  TYR180     -0.0009
    167  CD2       15.1520    0.3050   43.6900 C.ar  180  TYR180     -0.0009
    168  CE1       12.5040    0.4160   44.4650 C.ar  180  TYR180      0.0417
    169  CE2       14.8210    0.6210   45.0240 C.ar  180  TYR180      0.0417
    170  CZ        13.5030    0.6770   45.3900 C.ar  180  TYR180      0.1957
    171  OH        13.2140    0.9950   46.7020 O.3   180  TYR180     -0.2866
    172  N         16.0680   -2.4790   39.0680 N.am  181  ASN181     -0.1974
    173  CA        16.2300   -2.7700   37.6210 C.3   181  ASN181      0.1688
    174  C         16.8850   -4.1080   37.2480 C.2   181  ASN181      0.2292
    175  O         17.4970   -4.2360   36.1760 O.2   181  ASN181     -0.2864
    176  CB        17.0630   -1.6620   36.9620 C.3   181  ASN181      0.1181
    177  CG        16.2670   -0.4360   36.7070 C.2   181  ASN181      0.2629
    178  OD1       15.0580   -0.5040   36.4270 O.2   181  ASN181     -0.2716
    179  ND2       16.9250    0.7030   36.7670 N.am  181  ASN181     -0.0877
    180  N         17.4180   -4.7550   33.1640 N.3   190  ILE190     -0.1231
    181  CA        16.5770   -3.9180   32.2920 C.3   190  ILE190      0.1692
    182  C         16.8350   -2.4460   32.4900 C.2   190  ILE190      0.2592
    183  O         17.5550   -2.0630   33.4150 O.2   190  ILE190     -0.2718
    184  CB        15.0740   -4.1540   32.5810 C.3   190  ILE190      0.0266
    185  CG1       14.8010   -4.0040   34.0810 C.3   190  ILE190      0.0019
    186  CG2       14.6860   -5.5150   32.0400 C.3   190  ILE190      0.0020
    187  CD1       13.3390   -3.6980   34.5030 C.3   190  ILE190      0.0001
    188  N         16.2210   -1.6270   31.6250 N.am  191  ASP191     -0.1974
    189  CA        16.1280   -0.1830   31.8060 C.3   191  ASP191      0.1709
    190  C         17.4670    0.4390   31.4230 C.2   191  ASP191      0.2293
    191  O         18.2440    0.8340   32.2690 O.2   191  ASP191     -0.2864
    192  CB        15.7210    0.1480   33.2580 C.3   191  ASP191      0.1436
    193  CG        15.1990    1.5920   33.4410 C.2   191  ASP191      0.3671
    194  OD1       15.2930    2.4080   32.4930 O.co2 191  ASP191     -0.2456
    195  OD2       14.7190    1.9170   34.5610 O.co2 191  ASP191     -0.2456
    196  N         19.8870    4.9210   29.7230 N.3   193  GLN193     -0.1245
    197  CA        20.9480    5.7110   30.3290 C.3   193  GLN193      0.1566
    198  C         22.3460    5.0770   30.2120 C.2   193  GLN193      0.2260
    199  O         23.3380    5.7400   30.5290 O.2   193  GLN193     -0.2867
    200  CB        20.6330    5.9610   31.8140 C.3   193  GLN193      0.0367
    201  CG        21.0010    4.7910   32.7140 C.3   193  GLN193      0.0905
    202  CD        20.0580    3.6040   32.5540 C.2   193  GLN193      0.2608
    203  OE1       20.5010    2.4450   32.5470 O.2   193  GLN193     -0.2717
    204  NE2       18.7650    3.8820   32.3880 N.am  193  GLN193     -0.0878
@<TRIPOS>BOND
     1    66    67    1
     2    68    67    1
     3    68    69    2
     4    67    70    1
     5    82    83    2
     6    82    81    1
     7    80    81    1
     8    96    97    1
     9    48    47    2
    10    81    84    1
    11    43    42    2
    12    97   100    1
    13    97    98    1
    14    70    71    1
    15    57    56    2
    16   100   101    1
    17    92    91    2
    18    84    85    1
    19   101   102    1
    20    47    46    1
    21    42    41    1
    22    45    46    1
    23    91    90    1
    24    54    55    1
    25    40    41    1
    26    58    55    1
    27    58    59    1
    28    61    63   ar
    29    61    59   ar
    30   102   104   ar
    31   102   103   ar
    32    56    55    1
    33    98   105   am
    34    98    99    2
    35    71    72   ar
    36    71    73   ar
    37    85    86    1
    38    46    49    1
    39   105   106    1
    40    63    64   ar
    41    59    60   ar
    42    41    44    1
    43    72    74   ar
    44    49    50    1
    45    87    86   ar
    46    90    93    1
    47    90    89    1
    48    76    73   ar
    49    76    78   ar
    50    73    75   ar
    51    93    94    1
    52    86    88   ar
    53   109   106    1
    54   109   110    1
    55   106   107    1
    56    64    65    1
    57    64    62   ar
    58    60    62   ar
    59    50    51    1
    60    89    95    1
    61    74    75   ar
    62    78    79   ar
    63   108   107    2
    64    75    77   ar
    65    51    52    1
    66   107   116   am
    67    94    95    1
    68   110   111   ar
    69   110   112   ar
    70   111   113   ar
    71   123   121    1
    72    52    53    1
    73    79    77   ar
    74   112   114   ar
    75    22    21    2
    76   196   197    1
    77    35    34    1
    78    35    36    2
    79    34    33    1
    80    34    37    1
    81   116   117    1
    82   198   197    1
    83   198   199    2
    84    32    29    1
    85    38    37    1
    86   197   200    1
    87    29    30    1
    88    29    28    1
    89   121   120    1
    90   113   115   ar
    91     8     6    1
    92   114   115   ar
    93    37    39    1
    94    21    28   am
    95    21    20    1
    96   117   120    1
    97   117   118    1
    98    30    31    2
    99   190   189    1
   100   190   191    2
   101   120   122    1
   102   188   189    1
   103   188   182   am
   104     6     5    1
   105   189   192    1
   106   200   201    1
   107    20    23    1
   108    20    19    1
   109   186   184    1
   110   118   119    2
   111    23    24    1
   112   181   182    1
   113   181   184    1
   114   181   180    1
   115   204   202   am
   116   182   183    2
   117   194   193   ar
   118   203   202    2
   119   202   201    1
   120   184   185    1
   121     1     2    1
   122     5     2    1
   123     5     7    1
   124    12    11    2
   125    26    25   ar
   126    25    24    1
   127    25    27   ar
   128   192   193    1
   129   193   195   ar
   130     2     3    1
   131     9     3   am
   132     9    10    1
   133    18    17    2
   134   185   187    1
   135    11    10    1
   136     3     4    2
   137    15    16    1
   138   129   128    1
   139   129   130    1
   140   125   124    1
   141   125   128    1
   142   125   126    1
   143   124   130    1
   144    13    10    1
   145    13    14    1
   146    17    16    1
   147   131   126   am
   148   131   132    1
   149   126   127    2
   150   135   132    1
   151   152   153    1
   152   175   174    2
   153   156   153    1
   154   156   157    1
   155   178   177    2
   156   132   133    1
   157   177   179   am
   158   177   176    1
   159   159   157   ar
   160   176   173    1
   161   153   154    1
   162   134   133    2
   163   174   173    1
   164   157   158   ar
   165   154   155    2
   166   173   172    1
   167   142   140    1
   168   163   162    2
   169   172   162   am
   170   162   161    1
   171   136   137    1
   172   151   149   ar
   173   140   137    1
   174   140   141    1
   175   137   138    1
   176   150   149   ar
   177   149   148    1
   178   161   164    1
   179   161   160    1
   180   164   165    1
   181   138   139    2
   182   148   147    1
   183   165   166   ar
   184   165   167   ar
   185   147   144    1
   186   166   168   ar
   187   167   169   ar
   188   143   144    1
   189   168   170   ar
   190   144   145    1
   191   169   170   ar
   192   145   146    2
   193   170   171    1
