@<TRIPOS>MOLECULE
tmp/1zp9D00.pdb
 178 170 0 0 0
SMALL
GASTEIGER

@<TRIPOS>ATOM
      1  N          0.0760   -0.4040  -28.3890 N.3    53  ILE53      -0.1231
      2  CA         0.9930   -1.2860  -27.6820 C.3    53  ILE53       0.1692
      3  C          1.5620   -0.5290  -26.4850 C.2    53  ILE53       0.2592
      4  O          1.6460   -1.0630  -25.4040 O.2    53  ILE53      -0.2718
      5  CB         2.1160   -1.8330  -28.6090 C.3    53  ILE53       0.0266
      6  CG1        1.5510   -2.6390  -29.7980 C.3    53  ILE53       0.0019
      7  CG2        3.1120   -2.6520  -27.8070 C.3    53  ILE53       0.0020
      8  CD1        0.4970   -3.6860  -29.5010 C.3    53  ILE53       0.0001
      9  N          1.8910    0.7420  -26.6730 N.am   54  SER54      -0.1952
     10  CA         2.4320    1.5520  -25.5910 C.3    54  SER54       0.1924
     11  C          2.0530    2.9620  -25.8330 C.2    54  SER54       0.2314
     12  O          2.0430    3.3830  -26.9700 O.2    54  SER54      -0.2863
     13  CB         3.9660    1.4740  -25.5800 C.3    54  SER54       0.2116
     14  OG         4.5230    2.4720  -24.7390 O.3    54  SER54      -0.2180
     15  N          3.3200    6.6550  -24.5160 N.3    56  GLY56      -0.1225
     16  CA         4.4060    7.1970  -23.7440 C.3    56  GLY56       0.1811
     17  C          4.4900    8.6790  -23.8360 C.2    56  GLY56       0.2280
     18  O          3.7170    9.3250  -24.5350 O.2    56  GLY56      -0.2866
     19  N          7.2150   10.2730  -24.9080 N.3    58  GLU58      -0.1231
     20  CA         7.8490   10.7350  -26.1520 C.3    58  GLU58       0.1699
     21  C          7.2860   10.0630  -27.4020 C.2    58  GLU58       0.2592
     22  O          7.2170   10.6830  -28.4570 O.2    58  GLU58      -0.2718
     23  CB         9.3820   10.6250  -26.0980 C.3    58  GLU58       0.0402
     24  CG        10.0430   11.5090  -25.0150 C.3    58  GLU58       0.1161
     25  CD         9.9420   10.9420  -23.5920 C.2    58  GLU58       0.3649
     26  OE1        9.8950    9.6810  -23.4020 O.co2  58  GLU58      -0.2457
     27  OE2        9.9310   11.7770  -22.6460 O.co2  58  GLU58      -0.2457
     28  N          6.8450    8.8200  -27.2540 N.am   59  ALA59      -0.1980
     29  CA         6.4760    7.9900  -28.3960 C.3    59  ALA59       0.1597
     30  C          5.3070    7.0880  -28.0690 C.2    59  ALA59       0.2287
     31  O          5.0740    6.7190  -26.9120 O.2    59  ALA59      -0.2864
     32  CB         7.6890    7.1590  -28.8900 C.3    59  ALA59       0.0319
     33  N          3.3540    3.4710  -29.5800 N.3    61  VAL61      -0.1245
     34  CA         3.6660    2.2600  -30.3660 C.3    61  VAL61       0.1561
     35  C          2.3790    1.4950  -30.6260 C.2    61  VAL61       0.2260
     36  O          1.6070    1.2320  -29.7130 O.2    61  VAL61      -0.2867
     37  CB         4.7380    1.3520  -29.6670 C.3    61  VAL61       0.0252
     38  CG1        5.1250    0.1710  -30.5610 C.3    61  VAL61       0.0019
     39  CG2        6.0230    2.2050  -29.2890 C.3    61  VAL61       0.0019
     40  N          5.5320   -3.1420  -35.7850 N.3    75  ALA75      -0.1245
     41  CA         5.3220   -2.1560  -34.7390 C.3    75  ALA75       0.1562
     42  C          5.4800   -0.8210  -35.4190 C.2    75  ALA75       0.2260
     43  O          6.4390   -0.6120  -36.1700 O.2    75  ALA75      -0.2867
     44  CB         6.3260   -2.3170  -33.5720 C.3    75  ALA75       0.0290
     45  N          6.1440    2.8570  -34.4800 N.3    77  LYS77      -0.1245
     46  CA         6.5380    3.7480  -33.4160 C.3    77  LYS77       0.1561
     47  C          6.4810    5.1430  -33.9610 C.2    77  LYS77       0.2260
     48  O          7.0590    5.4110  -35.0350 O.2    77  LYS77      -0.2867
     49  CB         7.9780    3.4890  -32.9720 C.3    77  LYS77       0.0271
     50  CG         8.3770    4.2670  -31.6990 C.3    77  LYS77       0.0035
     51  CD         9.6660    3.6830  -31.1400 C.3    77  LYS77       0.0206
     52  CE        10.1260    4.4230  -29.8760 C.3    77  LYS77       0.1093
     53  NZ        11.3290    3.7570  -29.3640 N.3    77  LYS77      -0.1314
     54  N          6.9320    9.2040  -32.7400 N.3    79  TYR79      -0.1241
     55  CA         7.3290   10.2330  -31.7820 C.3    79  TYR79       0.1605
     56  C          6.3790   11.3850  -31.8490 C.2    79  TYR79       0.2264
     57  O          5.9120   11.7420  -32.9280 O.2    79  TYR79      -0.2867
     58  CB         8.7540   10.6990  -32.0680 C.3    79  TYR79       0.0534
     59  CG         9.7730    9.6320  -31.7190 C.ar   79  TYR79      -0.0201
     60  CD1       10.2680    9.5350  -30.4300 C.ar   79  TYR79      -0.0009
     61  CD2       10.1810    8.6790  -32.6570 C.ar   79  TYR79      -0.0009
     62  CE1       11.1710    8.5440  -30.0750 C.ar   79  TYR79       0.0417
     63  CE2       11.0870    7.6950  -32.3030 C.ar   79  TYR79       0.0417
     64  CZ        11.5850    7.6680  -30.9940 C.ar   79  TYR79       0.1957
     65  OH        12.4820    6.6990  -30.5940 O.3    79  TYR79      -0.2866
     66  N         15.5570   12.6530  -34.9960 N.3    99  TRP99      -0.1241
     67  CA        15.5380   11.6070  -33.9980 C.3    99  TRP99       0.1605
     68  C         14.9490   10.3090  -34.5500 C.2    99  TRP99       0.2264
     69  O         15.5180    9.2340  -34.3460 O.2    99  TRP99      -0.2867
     70  CB        14.6740   12.0380  -32.8230 C.3    99  TRP99       0.0550
     71  CG        14.7960   11.1400  -31.6270 C.ar   99  TRP99       0.0003
     72  CD1       13.9630   10.1070  -31.2650 C.ar   99  TRP99       0.0946
     73  CD2       15.8220   11.1940  -30.6320 C.ar   99  TRP99       0.0152
     74  NE1       14.4180    9.5170  -30.0980 N.ar   99  TRP99      -0.2442
     75  CE2       15.5430   10.1760  -29.6810 C.ar   99  TRP99       0.0810
     76  CE3       16.9560   12.0020  -30.4470 C.ar   99  TRP99       0.0012
     77  CZ2       16.3450    9.9690  -28.5660 C.ar   99  TRP99       0.0191
     78  CZ3       17.7530   11.7850  -29.3370 C.ar   99  TRP99       0.0001
     79  CH2       17.4440   10.7840  -28.4130 C.ar   99  TRP99       0.0015
     80  N         14.6500   -5.6700  -33.9100 N.3   118  PRO118     -0.2116
     81  CA        13.5780   -5.8040  -34.9100 C.3   118  PRO118      0.1372
     82  C         14.0470   -5.3470  -36.3050 C.2   118  PRO118      0.2244
     83  O         14.6850   -4.3130  -36.4220 O.2   118  PRO118     -0.2868
     84  CB        12.4830   -4.8530  -34.3840 C.3   118  PRO118      0.0268
     85  CG        12.7360   -4.7040  -32.9240 C.3   118  PRO118      0.0207
     86  CD        14.2750   -4.7400  -32.8250 C.3   118  PRO118      0.0892
     87  N          9.7470   -4.5740  -37.7320 N.3   129  GLU129     -0.1231
     88  CA         9.2270   -5.8900  -37.4110 C.3   129  GLU129      0.1699
     89  C          8.5640   -5.9070  -36.0240 C.2   129  GLU129      0.2592
     90  O          9.1800   -5.4550  -35.0410 O.2   129  GLU129     -0.2718
     91  CB        10.3800   -6.9070  -37.4900 C.3   129  GLU129      0.0402
     92  CG        10.1070   -8.2660  -36.8690 C.3   129  GLU129      0.1161
     93  CD        11.2800   -9.1980  -37.0490 C.2   129  GLU129      0.3649
     94  OE1       11.0930  -10.4260  -36.9530 O.co2 129  GLU129     -0.2457
     95  OE2       12.3930   -8.6950  -37.3370 O.co2 129  GLU129     -0.2457
     96  N          7.3400   -6.4610  -35.9530 N.am  130  PHE130     -0.1962
     97  CA         6.6610   -6.7240  -34.6940 C.3   130  PHE130      0.1771
     98  C          7.3120   -7.9030  -33.9820 C.2   130  PHE130      0.2619
     99  O          7.3700   -9.0000  -34.5240 O.2   130  PHE130     -0.2715
    100  CB         5.1570   -7.0340  -34.8930 C.3   130  PHE130      0.0574
    101  CG         4.3980   -7.1410  -33.6120 C.ar  130  PHE130     -0.0200
    102  CD1        4.1170   -5.9930  -32.8760 C.ar  130  PHE130     -0.0042
    103  CD2        3.9820   -8.3930  -33.1180 C.ar  130  PHE130     -0.0042
    104  CE1        3.4260   -6.0670  -31.6610 C.ar  130  PHE130     -0.0003
    105  CE2        3.2820   -8.4830  -31.9050 C.ar  130  PHE130     -0.0003
    106  CZ         3.0080   -7.3080  -31.1770 C.ar  130  PHE130     -0.0000
    107  N          7.8080   -7.6660  -32.7710 N.am  131  ILE131     -0.1977
    108  CA         8.4060   -8.7180  -31.9570 C.3   131  ILE131      0.1596
    109  C          7.3680   -9.1760  -30.9250 C.2   131  ILE131      0.2287
    110  O          7.0180   -8.4210  -30.0160 O.2   131  ILE131     -0.2864
    111  CB         9.7010   -8.2390  -31.2450 C.3   131  ILE131      0.0276
    112  CG1       10.7090   -7.6220  -32.2430 C.3   131  ILE131      0.0022
    113  CG2       10.3160   -9.3680  -30.4020 C.3   131  ILE131      0.0022
    114  CD1       11.2460   -8.5830  -33.2800 C.3   131  ILE131      0.0001
    115  N          3.0500   -7.6560  -27.6690 N.3   137  PRO137     -0.2102
    116  CA         4.5250   -7.5480  -27.7280 C.3   137  PRO137      0.1504
    117  C          5.2380   -8.6000  -26.8620 C.2   137  PRO137      0.2575
    118  O          4.6860   -9.0000  -25.8370 O.2   137  PRO137     -0.2718
    119  CB         4.7870   -6.1470  -27.1590 C.3   137  PRO137      0.0282
    120  CG         3.6480   -5.9130  -26.2600 C.3   137  PRO137      0.0208
    121  CD         2.4550   -6.5260  -26.9430 C.3   137  PRO137      0.0893
    122  N          6.4420   -9.0510  -27.2630 N.am  138  ALA138     -0.1980
    123  CA         7.2500   -9.9050  -26.3660 C.3   138  ALA138      0.1597
    124  C          7.4850   -9.1640  -25.0590 C.2   138  ALA138      0.2287
    125  O          7.5530   -7.9360  -25.0440 O.2   138  ALA138     -0.2864
    126  CB         8.5550  -10.2930  -26.9920 C.3   138  ALA138      0.0319
    127  N          9.2620   -7.3030  -22.0000 N.3   140  THR140     -0.1218
    128  CA        10.5920   -6.8260  -21.6140 C.3   140  THR140      0.1862
    129  C         11.1790   -7.6190  -20.3950 C.2   140  THR140      0.2287
    130  O         10.4800   -8.4430  -19.7320 O.2   140  THR140     -0.2866
    131  CB        10.6420   -5.2740  -21.4790 C.3   140  THR140      0.1770
    132  OG1        9.8440   -4.8410  -20.3780 O.3   140  THR140     -0.2211
    133  CG2       10.1030   -4.6330  -22.7280 C.3   140  THR140      0.0375
    134  N          9.3160   -6.8030  -17.2270 N.3   143  GLU143     -0.1245
    135  CA         8.0020   -7.4560  -17.2210 C.3   143  GLU143      0.1567
    136  C          8.1220   -8.9110  -16.8390 C.2   143  GLU143      0.2260
    137  O          7.2790   -9.4300  -16.1010 O.2   143  GLU143     -0.2867
    138  CB         7.3330   -7.3010  -18.5820 C.3   143  GLU143      0.0388
    139  CG         6.9690   -5.8290  -18.8800 C.3   143  GLU143      0.1160
    140  CD         6.3640   -5.5730  -20.2730 C.2   143  GLU143      0.3649
    141  OE1        5.3940   -4.7930  -20.3520 O.co2 143  GLU143     -0.2457
    142  OE2        6.8490   -6.1100  -21.2870 O.co2 143  GLU143     -0.2457
    143  N         14.2590   -2.3150  -19.1590 N.3   181  TYR181     -0.1227
    144  CA        13.0510   -1.7460  -19.7600 C.3   181  TYR181      0.1736
    145  C         13.0980   -1.6750  -21.2760 C.2   181  TYR181      0.2595
    146  O         12.0610   -1.3890  -21.9350 O.2   181  TYR181     -0.2718
    147  CB        12.9100   -0.3170  -19.2770 C.3   181  TYR181      0.0548
    148  CG        12.5720   -0.2240  -17.8110 C.ar  181  TYR181     -0.0200
    149  CD1       11.2380   -0.3380  -17.3780 C.ar  181  TYR181     -0.0009
    150  CD2       13.5750   -0.0350  -16.8450 C.ar  181  TYR181     -0.0009
    151  CE1       10.9060   -0.2230  -16.0230 C.ar  181  TYR181      0.0417
    152  CE2       13.2400    0.0490  -15.4840 C.ar  181  TYR181      0.0417
    153  CZ        11.9200   -0.0480  -15.0970 C.ar  181  TYR181      0.1957
    154  OH        11.5810    0.0150  -13.7650 O.3   181  TYR181     -0.2866
    155  N         14.2980   -1.8310  -21.8240 N.am  182  ASN182     -0.1974
    156  CA        14.5320   -1.6700  -23.2530 C.3   182  ASN182      0.1688
    157  C         15.0720   -2.9310  -23.9130 C.2   182  ASN182      0.2292
    158  O         15.6930   -2.8560  -24.9830 O.2   182  ASN182     -0.2864
    159  CB        15.4240   -0.4600  -23.5550 C.3   182  ASN182      0.1181
    160  CG        14.6370    0.8220  -23.6550 C.2   182  ASN182      0.2629
    161  OD1       13.4140    0.7860  -23.9070 O.2   182  ASN182     -0.2716
    162  ND2       15.3080    1.9750  -23.4240 N.am  182  ASN182     -0.0877
    163  N         15.7650   -2.7440  -28.2730 N.3   191  ILE191     -0.1231
    164  CA        14.9520   -1.7430  -28.9460 C.3   191  ILE191      0.1692
    165  C         15.2280   -0.3950  -28.3190 C.2   191  ILE191      0.2592
    166  O         16.0160   -0.3040  -27.3580 O.2   191  ILE191     -0.2718
    167  CB        13.4100   -2.0550  -28.8600 C.3   191  ILE191      0.0266
    168  CG1       12.9980   -2.2550  -27.3990 C.3   191  ILE191      0.0019
    169  CG2       13.0580   -3.2550  -29.7410 C.3   191  ILE191      0.0020
    170  CD1       11.4680   -2.4010  -27.1800 C.3   191  ILE191      0.0001
    171  N         14.5860    0.6170  -28.8830 N.am  192  ASP192     -0.1974
    172  CA        14.5630    1.9870  -28.4050 C.3   192  ASP192      0.1709
    173  C         15.9830    2.4870  -28.6010 C.2   192  ASP192      0.2293
    174  O         16.8590    2.2840  -27.7350 O.2   192  ASP192     -0.2864
    175  CB        14.1210    2.0580  -26.9380 C.3   192  ASP192      0.1436
    176  CG        13.7180    3.4580  -26.5070 C.2   192  ASP192      0.3671
    177  OD1       13.8070    4.3980  -27.3260 O.co2 192  ASP192     -0.2456
    178  OD2       13.2460    3.6090  -25.3490 O.co2 192  ASP192     -0.2456
@<TRIPOS>BOND
     1    87    88    1
     2    91    88    1
     3    91    92    1
     4    88    89    1
     5    95    93   ar
     6    93    94   ar
     7    93    92    1
     8    83    82    2
     9    82    81    1
    10    43    42    2
    11    89    96   am
    12    89    90    2
    13    96    97    1
    14    40    41    1
    15    42    41    1
    16    48    47    2
    17    66    67    1
    18    81    84    1
    19    81    80    1
    20   100    97    1
    21   100   101    1
    22    41    44    1
    23    97    98    1
    24    68    69    2
    25    68    67    1
    26    99    98    2
    27    45    46    1
    28    84    85    1
    29    67    70    1
    30    98   107   am
    31    47    46    1
    32    80    86    1
    33   101   103   ar
    34   101   102   ar
    35    46    49    1
    36   114   112    1
    37   103   105   ar
    38    49    50    1
    39    57    56    2
    40    85    86    1
    41   102   104   ar
    42    70    71    1
    43   107   108    1
    44    54    55    1
    45    61    63   ar
    46    61    59   ar
    47    63    64   ar
    48   112   111    1
    49    58    55    1
    50    58    59    1
    51   108   111    1
    52   108   109    1
    53   105   106   ar
    54    56    55    1
    55    59    60   ar
    56    50    51    1
    57   104   106   ar
    58    71    72   ar
    59    71    73   ar
    60    72    74   ar
    61   111   113    1
    62    51    52    1
    63    64    65    1
    64    64    62   ar
    65   109   110    2
    66    73    76   ar
    67    73    75   ar
    68    35    34    1
    69    35    36    2
    70    38    37    1
    71    76    78   ar
    72    60    62   ar
    73    34    37    1
    74    34    33    1
    75    74    75   ar
    76    52    53    1
    77     6     8    1
    78     6     5    1
    79   169   167    1
    80    75    77   ar
    81    37    39    1
    82    78    79   ar
    83   164   167    1
    84   164   165    1
    85   164   163    1
    86    32    29    1
    87   171   172    1
    88   171   165   am
    89   167   168    1
    90     5     7    1
    91     5     2    1
    92   173   172    1
    93   173   174    2
    94    77    79   ar
    95    22    21    2
    96   172   175    1
    97    29    30    1
    98    29    28    1
    99     1     2    1
   100   165   166    2
   101    30    31    2
   102   116   115    1
   103   116   119    1
   104   116   117    1
   105     2     3    1
   106   115   121    1
   107    21    28   am
   108    21    20    1
   109   168   170    1
   110   177   176   ar
   111   122   117   am
   112   122   123    1
   113   119   120    1
   114   126   123    1
   115    12    11    2
   116   121   120    1
   117   175   176    1
   118   117   118    2
   119     9     3   am
   120     9    10    1
   121   176   178   ar
   122     3     4    2
   123   123   124    1
   124    20    23    1
   125    20    19    1
   126    23    24    1
   127    11    10    1
   128    10    13    1
   129    13    14    1
   130   124   125    2
   131    24    25    1
   132   158   157    2
   133    18    17    2
   134    15    16    1
   135   157   156    1
   136   161   160    2
   137    17    16    1
   138   160   159    1
   139   160   162   am
   140    25    26   ar
   141    25    27   ar
   142   159   156    1
   143   156   155    1
   144   133   131    1
   145   127   128    1
   146   146   145    2
   147   155   145   am
   148   128   131    1
   149   128   129    1
   150   131   132    1
   151   142   140   ar
   152   145   144    1
   153   129   130    2
   154   141   140   ar
   155   140   139    1
   156   144   147    1
   157   144   143    1
   158   147   148    1
   159   139   138    1
   160   138   135    1
   161   148   149   ar
   162   148   150   ar
   163   149   151   ar
   164   134   135    1
   165   135   136    1
   166   150   152   ar
   167   136   137    2
   168   151   153   ar
   169   152   153   ar
   170   153   154    1
