@<TRIPOS>MOLECULE
tmp/1zpaA00.pdb
 101 95 0 0 0
SMALL
GASTEIGER

@<TRIPOS>ATOM
      1  N         -4.5600   25.8870   29.6140 N.3    23  LEU23      -0.1245
      2  CA        -5.7340   25.8250   28.7560 C.3    23  LEU23       0.1561
      3  C         -7.0390   25.9440   29.5410 C.2    23  LEU23       0.2260
      4  O         -7.2580   25.1890   30.4930 O.2    23  LEU23      -0.2867
      5  CB        -5.7550   24.5020   28.0220 C.3    23  LEU23       0.0270
      6  CG        -5.5610   24.3110   26.5380 C.3    23  LEU23       0.0019
      7  CD1       -6.1710   22.9530   26.1510 C.3    23  LEU23       0.0001
      8  CD2       -6.1580   25.4270   25.7000 C.3    23  LEU23       0.0001
      9  N        -10.3500   24.7960   29.8980 N.3    25  ASP25      -0.1239
     10  CA       -10.8060   23.5200   29.3460 C.3    25  ASP25       0.1674
     11  C        -12.1830   23.1450   29.8720 C.2    25  ASP25       0.2266
     12  O        -12.2650   22.4770   30.9090 O.2    25  ASP25      -0.2867
     13  CB        -9.7840   22.4300   29.6750 C.3    25  ASP25       0.1410
     14  CG       -10.0520   21.1130   28.9710 C.2    25  ASP25       0.3668
     15  OD1      -11.1810   20.9350   28.4730 O.co2  25  ASP25      -0.2456
     16  OD2       -9.1530   20.2540   28.8830 O.co2  25  ASP25      -0.2456
     17  N        -14.0480   20.9860   28.9540 N.3    27  GLY27      -0.1210
     18  CA       -14.2530   19.5460   28.8800 C.3    27  GLY27       0.1956
     19  C        -13.5760   18.7940   30.0150 C.2    27  GLY27       0.2612
     20  O        -13.6120   17.5640   30.0330 O.2    27  GLY27      -0.2717
     21  N        -12.9660   19.5170   30.9480 N.am   28  ALA28      -0.1965
     22  CA       -12.2700   18.9470   32.0900 C.3    28  ALA28       0.1728
     23  C        -13.0330   19.1890   33.3840 C.2    28  ALA28       0.2616
     24  O        -13.2930   20.3310   33.7710 O.2    28  ALA28      -0.2715
     25  CB       -10.8730   19.5720   32.1860 C.3    28  ALA28       0.0334
     26  N        -13.4570   18.1620   34.1200 N.am   29  ASP29      -0.1957
     27  CA       -14.0840   18.4300   35.4140 C.3    29  ASP29       0.1840
     28  C        -13.0880   19.0970   36.3690 C.2    29  ASP29       0.2622
     29  O        -13.4370   19.9190   37.2010 O.2    29  ASP29      -0.2715
     30  CB       -14.5560   17.1300   36.0850 C.3    29  ASP29       0.1450
     31  CG       -15.5380   16.3460   35.2330 C.2    29  ASP29       0.3671
     32  OD1      -16.2800   16.9870   34.4580 O.co2  29  ASP29      -0.2456
     33  OD2      -15.5790   15.1010   35.3310 O.co2  29  ASP29      -0.2456
     34  N        -11.8420   18.6680   36.1950 N.am   30  ASP30      -0.1971
     35  CA       -10.7390   18.8730   37.1090 C.3    30  ASP30       0.1709
     36  C         -9.5740   19.6030   36.4450 C.2    30  ASP30       0.2293
     37  O         -9.4570   19.6110   35.2200 O.2    30  ASP30      -0.2864
     38  CB       -10.2290   17.5260   37.6420 C.3    30  ASP30       0.1436
     39  CG       -11.1240   16.9590   38.7290 C.2    30  ASP30       0.3671
     40  OD1      -11.8800   17.7430   39.3270 O.co2  30  ASP30      -0.2456
     41  OD2      -11.0710   15.7380   38.9850 O.co2  30  ASP30      -0.2456
     42  N         -5.6240   19.8890   35.9440 N.3    32  VAL32      -0.1245
     43  CA        -4.4810   18.9860   35.9690 C.3    32  VAL32       0.1561
     44  C         -3.2490   19.6830   35.3940 C.2    32  VAL32       0.2260
     45  O         -3.2790   20.1280   34.2490 O.2    32  VAL32      -0.2867
     46  CB        -4.7610   17.7050   35.1610 C.3    32  VAL32       0.0252
     47  CG1       -3.8020   16.5910   35.5740 C.3    32  VAL32       0.0019
     48  CG2       -6.2060   17.2450   35.3180 C.3    32  VAL32       0.0019
     49  N         -6.7380    9.6570   37.0050 N.3    47  ILE47      -0.1231
     50  CA        -7.8000   10.3150   36.2330 C.3    47  ILE47       0.1692
     51  C         -7.7930    9.8130   34.7920 C.2    47  ILE47       0.2593
     52  O         -6.7380    9.4770   34.2510 O.2    47  ILE47      -0.2718
     53  CB        -7.7000   11.8400   36.2620 C.3    47  ILE47       0.0266
     54  CG1       -6.4310   12.4470   35.6630 C.3    47  ILE47       0.0019
     55  CG2       -7.8750   12.3600   37.6890 C.3    47  ILE47       0.0020
     56  CD1       -6.4850   13.9640   35.8160 C.3    47  ILE47       0.0001
     57  N         -8.9780    9.7680   34.2010 N.am   48  GLY48      -0.1942
     58  CA        -9.1960    9.2710   32.8560 C.3    48  GLY48       0.2014
     59  C         -9.2440   10.3550   31.7980 C.2    48  GLY48       0.2639
     60  O         -9.5610   11.5180   32.0460 O.2    48  GLY48      -0.2714
     61  N         -8.9010    9.9880   30.5670 N.am   49  GLY49      -0.1939
     62  CA        -8.8260   10.9370   29.4630 C.3    49  GLY49       0.2014
     63  C         -8.9740   10.2010   28.1500 C.2    49  GLY49       0.2638
     64  O         -9.2530    9.0040   28.1470 O.2    49  GLY49      -0.2714
     65  N         -8.7750   10.8660   27.0150 N.am   50  ILE50      -0.1977
     66  CA        -8.7300   10.0880   25.7710 C.3    50  ILE50       0.1596
     67  C         -7.4620    9.2610   25.7890 C.2    50  ILE50       0.2287
     68  O         -6.4150    9.7270   26.2450 O.2    50  ILE50      -0.2864
     69  CB        -8.7730   10.9950   24.5390 C.3    50  ILE50       0.0276
     70  CG1      -10.1450   11.0570   23.8520 C.3    50  ILE50       0.0022
     71  CG2       -7.7180   10.5850   23.5280 C.3    50  ILE50       0.0022
     72  CD1      -10.1620   12.0740   22.7250 C.3    50  ILE50       0.0001
     73  N          0.3690   15.0340   32.6520 N.3    80  THR80      -0.1204
     74  CA        -0.4830   15.5400   31.5840 C.3    80  THR80       0.1979
     75  C          0.4160   16.2960   30.6070 C.2    80  THR80       0.2460
     76  O          1.3250   17.0060   31.0310 O.2    80  THR80      -0.2732
     77  CB        -1.6010   16.4740   32.0710 C.3    80  THR80       0.1783
     78  OG1       -2.2880   17.0390   30.9440 O.3    80  THR80      -0.2211
     79  CG2       -0.9770   17.6250   32.8440 C.3    80  THR80       0.0376
     80  N          0.1450   16.1120   29.3280 N.am   81  PRO81      -0.2717
     81  CA         0.9390   16.7550   28.2820 C.3    81  PRO81       0.1535
     82  C          0.5800   18.2210   28.1190 C.2    81  PRO81       0.2598
     83  O          1.1850   18.9490   27.3270 O.2    81  PRO81      -0.2715
     84  CB         0.5130   15.9910   27.0200 C.3    81  PRO81       0.0310
     85  CG        -0.8920   15.5840   27.3160 C.3    81  PRO81       0.0237
     86  CD        -0.9290   15.2660   28.7880 C.3    81  PRO81       0.0939
     87  N         -0.4300   18.6670   28.8600 N.am   82  VAL82      -0.1978
     88  CA        -0.8610   20.0510   28.6950 C.3    82  VAL82       0.1596
     89  C         -1.4160   20.5670   30.0110 C.2    82  VAL82       0.2287
     90  O         -2.1320   19.7880   30.6510 O.2    82  VAL82      -0.2864
     91  CB        -1.9830   20.2030   27.6540 C.3    82  VAL82       0.0276
     92  CG1       -3.1790   19.3520   28.0570 C.3    82  VAL82       0.0022
     93  CG2       -2.3730   21.6690   27.5370 C.3    82  VAL82       0.0022
     94  N         -4.0000   22.1100   32.2870 N.3    84  ILE84      -0.1245
     95  CA        -5.4390   22.1750   32.0710 C.3    84  ILE84       0.1561
     96  C         -6.1990   22.7930   33.2470 C.2    84  ILE84       0.2260
     97  O         -6.1120   22.2920   34.3610 O.2    84  ILE84      -0.2867
     98  CB        -6.0090   20.7630   31.8270 C.3    84  ILE84       0.0252
     99  CG1       -5.4880   20.0370   30.5850 C.3    84  ILE84       0.0019
    100  CG2       -7.5320   20.8010   31.7890 C.3    84  ILE84       0.0019
    101  CD1       -5.6790   18.5290   30.7350 C.3    84  ILE84       0.0001
@<TRIPOS>BOND
     1    72    70    1
     2    71    69    1
     3    70    69    1
     4    69    66    1
     5     8     6    1
     6    66    67    1
     7    66    65    1
     8    67    68    2
     9     7     6    1
    10     6     5    1
    11    65    63   am
    12    84    85    1
    13    84    81    1
    14    85    86    1
    15    83    82    2
    16    93    91    1
    17    91    92    1
    18    91    88    1
    19     5     2    1
    20    82    81    1
    21    82    87   am
    22    64    63    2
    23    63    62    1
    24    81    80    1
    25    15    14   ar
    26    88    87    1
    27    88    89    1
    28     2     3    1
    29     2     1    1
    30    86    80    1
    31    18    17    1
    32    18    19    1
    33    16    14   ar
    34    14    13    1
    35    80    75   am
    36    10    13    1
    37    10    11    1
    38    10     9    1
    39    62    61    1
    40     3     4    2
    41    11    12    2
    42    89    90    2
    43    19    20    2
    44    19    21   am
    45    61    59   am
    46    99   101    1
    47    99    98    1
    48    75    76    2
    49    75    74    1
    50    78    77    1
    51    21    22    1
    52    74    77    1
    53    74    73    1
    54   100    98    1
    55    59    60    2
    56    59    58    1
    57    98    95    1
    58    77    79    1
    59    95    94    1
    60    95    96    1
    61    22    25    1
    62    22    23    1
    63    58    57    1
    64    96    97    2
    65    23    24    2
    66    23    26   am
    67    26    27    1
    68    57    51   am
    69    45    44    2
    70    52    51    2
    71    32    31   ar
    72    51    50    1
    73    46    48    1
    74    46    47    1
    75    46    43    1
    76    37    36    2
    77    31    33   ar
    78    31    30    1
    79    44    43    1
    80    27    30    1
    81    27    28    1
    82    54    56    1
    83    54    53    1
    84    42    43    1
    85    34    28   am
    86    34    35    1
    87    50    53    1
    88    50    49    1
    89    53    55    1
    90    28    29    2
    91    36    35    1
    92    35    38    1
    93    38    39    1
    94    39    41   ar
    95    39    40   ar
