@<TRIPOS>MOLECULE
tmp/1zpbA00.pdb
 203 204 0 0 0
SMALL
GASTEIGER

@<TRIPOS>ATOM
      1  N          6.4960   53.3850   33.1810 N.3    28  LEU28      -0.1231
      2  CA         7.8640   53.5680   32.7150 C.3    28  LEU28       0.1693
      3  C          8.2880   52.4820   31.7320 C.2    28  LEU28       0.2592
      4  O          8.7240   52.7600   30.6150 O.2    28  LEU28      -0.2718
      5  CB         8.8260   53.5430   33.9090 C.3    28  LEU28       0.0284
      6  CG        10.3220   53.6080   33.5730 C.3    28  LEU28       0.0019
      7  CD1       10.6330   54.9390   32.9030 C.3    28  LEU28       0.0001
      8  CD2       11.1560   53.4460   34.8400 C.3    28  LEU28       0.0001
      9  N          8.1520   51.2360   32.1720 N.am   29  CYS29      -0.1970
     10  CA         8.5510   50.0900   31.3840 C.3    29  CYS29       0.1712
     11  C          7.7730   48.8410   31.7240 C.2    29  CYS29       0.2296
     12  O          7.0130   48.8220   32.6950 O.2    29  CYS29      -0.2864
     13  CB        10.0330   49.8160   31.6190 C.3    29  CYS29       0.0983
     14  SG        11.1420   50.8300   30.5810 S.3    29  CYS29      -0.0798
     15  N         18.2440   49.5020   30.4490 N.3    44  HIS44      -0.1226
     16  CA        18.1530   50.8280   29.8900 C.3    44  HIS44       0.1752
     17  C         16.8710   51.5160   30.3490 C.2    44  HIS44       0.2596
     18  O         16.6220   52.6930   30.0540 O.2    44  HIS44      -0.2718
     19  CB        18.1380   50.7460   28.3920 C.3    44  HIS44       0.0759
     20  CG        16.7780   50.5470   27.8110 C.ar   44  HIS44       0.0818
     21  ND1       16.3120   49.3390   27.3680 N.ar   44  HIS44      -0.2268
     22  CD2       15.7690   51.4170   27.6540 C.ar   44  HIS44       0.1154
     23  CE1       15.0530   49.4350   26.9650 C.ar   44  HIS44       0.1986
     24  NE2       14.7100   50.6890   27.1330 N.ar   44  HIS44      -0.2212
     25  N         16.0310   50.7850   31.0670 N.am   45  CYS45      -0.1970
     26  CA        14.7760   51.3220   31.5660 C.3    45  CYS45       0.1712
     27  C         14.9730   52.1390   32.8340 C.2    45  CYS45       0.2296
     28  O         14.0370   52.7550   33.3380 O.2    45  CYS45      -0.2864
     29  CB        13.7900   50.1920   31.8680 C.3    45  CYS45       0.0983
     30  SG        12.7760   49.6480   30.5030 S.3    45  CYS45      -0.0798
     31  N         26.5520   46.4670   30.9220 N.3    85  TYR85      -0.1241
     32  CA        25.5870   47.2810   30.1860 C.3    85  TYR85       0.1605
     33  C         26.0800   48.7070   30.0300 C.2    85  TYR85       0.2264
     34  O         26.5380   49.3130   30.9920 O.2    85  TYR85      -0.2867
     35  CB        24.2380   47.3420   30.9040 C.3    85  TYR85       0.0534
     36  CG        23.3180   48.3850   30.3010 C.ar   85  TYR85      -0.0201
     37  CD1       22.7020   48.1680   29.0750 C.ar   85  TYR85      -0.0009
     38  CD2       23.1280   49.6150   30.9200 C.ar   85  TYR85      -0.0009
     39  CE1       21.9290   49.1470   28.4740 C.ar   85  TYR85       0.0417
     40  CE2       22.3540   50.6010   30.3270 C.ar   85  TYR85       0.0417
     41  CZ        21.7600   50.3630   29.1020 C.ar   85  TYR85       0.1957
     42  OH        21.0080   51.3450   28.4910 O.3    85  TYR85      -0.2866
     43  N         21.4500   50.0950   25.3280 N.3    88  ALA88      -0.1231
     44  CA        20.6560   49.0410   24.7030 C.3    88  ALA88       0.1694
     45  C         21.2470   48.4920   23.4150 C.2    88  ALA88       0.2591
     46  O         21.4290   47.2810   23.2820 O.2    88  ALA88      -0.2718
     47  CB        19.2440   49.5380   24.4520 C.3    88  ALA88       0.0304
     48  N         21.5550   49.3800   22.4700 N.am   89  GLU89      -0.1979
     49  CA        22.1060   48.9650   21.1840 C.3    89  GLU89       0.1602
     50  C         23.4120   48.1790   21.2670 C.2    89  GLU89       0.2287
     51  O         23.7700   47.4830   20.3170 O.2    89  GLU89      -0.2864
     52  CB        22.2830   50.1850   20.2700 C.3    89  GLU89       0.0415
     53  CG        20.9880   50.9900   20.0830 C.3    89  GLU89       0.1163
     54  CD        21.2220   52.3980   19.5590 C.2    89  GLU89       0.3649
     55  OE1       21.5310   52.5660   18.3560 O.co2  89  GLU89      -0.2457
     56  OE2       21.1030   53.3460   20.3620 O.co2  89  GLU89      -0.2457
     57  N         24.7290   48.5560   13.2010 N.3   165  HIS165     -0.1241
     58  CA        24.9520   48.0100   14.5070 C.3   165  HIS165      0.1621
     59  C         25.5980   46.6450   14.4630 C.2   165  HIS165      0.2264
     60  O         25.9920   46.1630   13.4030 O.2   165  HIS165     -0.2867
     61  CB        23.6320   47.8730   15.2370 C.3   165  HIS165      0.0745
     62  CG        22.8940   49.1590   15.4060 C.ar  165  HIS165      0.0817
     63  ND1       22.1980   49.7550   14.3930 N.ar  165  HIS165     -0.2268
     64  CD2       22.8320   50.0030   16.4510 C.ar  165  HIS165      0.1154
     65  CE1       21.7350   50.9400   14.7670 C.ar  165  HIS165      0.1986
     66  NE2       22.1140   51.1060   16.0110 N.ar  165  HIS165     -0.2212
     67  N          5.0030   45.1040   15.8620 N.3   182  ASP182     -0.1225
     68  CA         6.2690   45.2600   16.5710 C.3   182  ASP182      0.1805
     69  C          6.0120   45.8370   17.9600 C.2   182  ASP182      0.2598
     70  O          4.9000   46.2400   18.2820 O.2   182  ASP182     -0.2718
     71  CB         7.1420   46.2300   15.7510 C.3   182  ASP182      0.1424
     72  CG         8.6180   46.2100   16.1310 C.2   182  ASP182      0.3668
     73  OD1        9.0450   45.4030   16.9890 O.co2 182  ASP182     -0.2456
     74  OD2        9.3650   47.0240   15.5350 O.co2 182  ASP182     -0.2456
     75  N          7.0400   45.8540   18.7930 N.am  183  ALA183     -0.1966
     76  CA         6.9040   46.4570   20.1020 C.3   183  ALA183      0.1728
     77  C          7.2300   47.9210   19.7990 C.2   183  ALA183      0.2616
     78  O          7.7130   48.2300   18.7120 O.2   183  ALA183     -0.2715
     79  CB         7.9260   45.8660   21.0640 C.3   183  ALA183      0.0334
     80  N          6.9590   48.8280   20.7270 N.am  184  CYS184     -0.1954
     81  CA         7.2770   50.2320   20.4890 C.3   184  CYS184      0.1843
     82  C          7.5620   50.8990   21.8300 C.2   184  CYS184      0.2625
     83  O          7.7410   50.2100   22.8340 O.2   184  CYS184     -0.2714
     84  CB         6.1280   50.9260   19.7470 C.3   184  CYS184      0.0997
     85  SG         6.5890   52.4960   18.9240 S.3   184  CYS184     -0.0797
     86  N          7.6030   52.2270   21.8500 N.am  185  LYS185     -0.1963
     87  CA         7.9030   52.9680   23.0720 C.3   185  LYS185      0.1728
     88  C          6.9570   52.6660   24.2300 C.2   185  LYS185      0.2617
     89  O          5.7420   52.8210   24.1180 O.2   185  LYS185     -0.2715
     90  CB         7.9050   54.4660   22.7790 C.3   185  LYS185      0.0311
     91  CG         8.8720   54.8400   21.6610 C.3   185  LYS185      0.0038
     92  CD        10.2110   54.1700   21.9060 C.3   185  LYS185      0.0206
     93  CE        10.7950   53.5670   20.6390 C.3   185  LYS185      0.1093
     94  NZ        11.5000   54.5670   19.8030 N.3   185  LYS185     -0.1314
     95  N          7.5340   52.2420   25.3490 N.am  186  GLY186     -0.1940
     96  CA         6.7380   51.9140   26.5170 C.3   186  GLY186      0.2014
     97  C          6.6920   50.4160   26.7380 C.2   186  GLY186      0.2639
     98  O          6.3150   49.9540   27.8140 O.2   186  GLY186     -0.2714
     99  N          7.0790   49.6520   25.7180 N.am  187  ASP187     -0.1957
    100  CA         7.0760   48.1960   25.8230 C.3   187  ASP187      0.1840
    101  C          8.3930   47.6670   26.3750 C.2   187  ASP187      0.2622
    102  O          8.4860   46.5030   26.7780 O.2   187  ASP187     -0.2715
    103  CB         6.7850   47.5640   24.4600 C.3   187  ASP187      0.1450
    104  CG         5.3770   47.8480   23.9780 C.2   187  ASP187      0.3671
    105  OD1        4.4320   47.6890   24.7820 O.co2 187  ASP187     -0.2456
    106  OD2        5.2130   48.2180   22.7980 O.co2 187  ASP187     -0.2456
    107  N          9.4020   48.5330   26.3930 N.am  188  SER188     -0.1950
    108  CA        10.7290   48.2050   26.9070 C.3   188  SER188      0.1924
    109  C         10.6650   47.4420   28.2190 C.2   188  SER188      0.2314
    110  O          9.8770   47.7900   29.1010 O.2   188  SER188     -0.2863
    111  CB        11.5350   49.4880   27.1250 C.3   188  SER188      0.2116
    112  OG        12.0720   49.9630   25.9090 O.3   188  SER188     -0.2180
    113  N         12.0810   43.0270   25.5080 N.3   206  THR206     -0.1203
    114  CA        11.9910   44.1440   24.5800 C.3   206  THR206      0.1994
    115  C         13.0840   45.1650   24.8840 C.2   206  THR206      0.2619
    116  O         13.1730   45.6830   25.9980 O.2   206  THR206     -0.2717
    117  CB        10.6160   44.8140   24.6590 C.3   206  THR206      0.1784
    118  OG1        9.6090   43.8630   24.2830 O.3   206  THR206     -0.2211
    119  CG2       10.5450   46.0050   23.7100 C.3   206  THR206      0.0376
    120  N         13.9060   45.4600   23.8800 N.am  207  SER207     -0.1937
    121  CA        15.0270   46.3730   24.0630 C.3   207  SER207      0.2055
    122  C         15.0230   47.6130   23.1580 C.2   207  SER207      0.2643
    123  O         14.7990   48.7290   23.6270 O.2   207  SER207     -0.2714
    124  CB        16.3300   45.5850   23.8720 C.3   207  SER207      0.2130
    125  OG        17.4770   46.3630   24.1710 O.3   207  SER207     -0.2179
    126  N         15.2670   47.4210   21.8640 N.am  208  TRP208     -0.1959
    127  CA        15.3140   48.5500   20.9450 C.3   208  TRP208      0.1771
    128  C         14.9070   48.2130   19.5200 C.2   208  TRP208      0.2620
    129  O         14.6690   47.0560   19.1780 O.2   208  TRP208     -0.2715
    130  CB        16.7230   49.1500   20.9210 C.3   208  TRP208      0.0590
    131  CG        17.8020   48.1840   20.4960 C.ar  208  TRP208      0.0006
    132  CD1       18.3600   47.1920   21.2520 C.ar  208  TRP208      0.0946
    133  CD2       18.4610   48.1320   19.2200 C.ar  208  TRP208      0.0152
    134  NE1       19.3260   46.5280   20.5290 N.ar  208  TRP208     -0.2442
    135  CE2       19.4060   47.0860   19.2800 C.ar  208  TRP208      0.0810
    136  CE3       18.3460   48.8690   18.0380 C.ar  208  TRP208      0.0012
    137  CZ2       20.2280   46.7600   18.2030 C.ar  208  TRP208      0.0191
    138  CZ3       19.1670   48.5420   16.9650 C.ar  208  TRP208      0.0001
    139  CH2       20.0940   47.4980   17.0560 C.ar  208  TRP208      0.0015
    140  N         14.8370   49.2480   18.6920 N.am  209  GLY209     -0.1940
    141  CA        14.4840   49.0730   17.2960 C.3   209  GLY209      0.2014
    142  C         14.5060   50.4070   16.5770 C.2   209  GLY209      0.2639
    143  O         14.2980   51.4480   17.2040 O.2   209  GLY209     -0.2714
    144  N         14.7780   50.3930   15.2750 N.am  210  GLU210     -0.1963
    145  CA        14.7810   51.6290   14.4980 C.3   210  GLU210      0.1733
    146  C         13.3290   51.9290   14.1740 C.2   210  GLU210      0.2617
    147  O         12.7230   51.2550   13.3430 O.2   210  GLU210     -0.2715
    148  CB        15.5740   51.4670   13.2000 C.3   210  GLU210      0.0429
    149  CG        15.6400   52.7550   12.3930 C.3   210  GLU210      0.1163
    150  CD        16.1650   53.9220   13.2160 C.2   210  GLU210      0.3649
    151  OE1       17.3200   53.8530   13.6650 O.co2 210  GLU210     -0.2457
    152  OE2       15.4270   54.9080   13.4180 O.co2 210  GLU210     -0.2457
    153  N         12.7710   52.9380   14.8330 N.am  211  GLY211     -0.1940
    154  CA        11.3760   53.2720   14.6180 C.3   211  GLY211      0.2014
    155  C         10.5330   52.1490   15.2130 C.2   211  GLY211      0.2639
    156  O         10.9880   51.4430   16.1240 O.2   211  GLY211     -0.2714
    157  N          9.3160   51.9680   14.7060 N.am  212  CYS212     -0.1967
    158  CA         8.4380   50.9090   15.2000 C.3   212  CYS212      0.1712
    159  C          7.6490   50.2490   14.0810 C.2   212  CYS212      0.2296
    160  O          6.9020   50.9130   13.3690 O.2   212  CYS212     -0.2864
    161  CB         7.4510   51.4630   16.2280 C.3   212  CYS212      0.0983
    162  SG         8.2040   52.0120   17.7870 S.3   212  CYS212     -0.0798
    163  N         12.9120   46.2230    9.4460 N.3   217  ARG217     -0.1231
    164  CA        13.4660   46.7490   10.6870 C.3   217  ARG217      0.1679
    165  C         12.8410   45.9850   11.8520 C.2   217  ARG217      0.2434
    166  O         11.9310   46.4790   12.5160 O.2   217  ARG217     -0.2733
    167  CB        13.1720   48.2460   10.8270 C.3   217  ARG217      0.0321
    168  CG        13.9540   49.1630    9.8770 C.3   217  ARG217      0.0489
    169  CD        15.4650   49.1640   10.1440 C.3   217  ARG217      0.2205
    170  NE        16.1190   50.3110    9.5140 N.pl3 217  ARG217     -0.0865
    171  CZ        17.3460   50.7370    9.8070 C.cat 217  ARG217      0.5346
    172  NH1       18.0740   50.1110   10.7220 N.pl3 217  ARG217      0.1354
    173  NH2       17.8440   51.8080    9.1980 N.pl3 217  ARG217      0.1354
    174  N         13.3240   44.7590   12.1060 N.am  218  PRO218     -0.2718
    175  CA        12.8360   43.8930   13.1860 C.3   218  PRO218      0.1535
    176  C         13.0760   44.5020   14.5630 C.2   218  PRO218      0.2599
    177  O         13.9800   45.3270   14.7380 O.2   218  PRO218     -0.2715
    178  CB        13.6590   42.6130   13.0110 C.3   218  PRO218      0.0310
    179  CG        14.0200   42.6140   11.5790 C.3   218  PRO218      0.0237
    180  CD        14.3520   44.0630   11.3140 C.3   218  PRO218      0.0939
    181  N         12.2680   44.0980   15.5360 N.am  219  GLY219     -0.1941
    182  CA        12.4680   44.5880   16.8820 C.3   219  GLY219      0.2014
    183  C         13.6610   43.8180   17.4160 C.2   219  GLY219      0.2639
    184  O         13.8700   42.6620   17.0390 O.2   219  GLY219     -0.2714
    185  N         14.4650   44.4430   18.2660 N.am  220  VAL220     -0.1963
    186  CA        15.6190   43.7530   18.8220 C.3   220  VAL220      0.1727
    187  C         15.3700   43.4870   20.3010 C.2   220  VAL220      0.2616
    188  O         14.8910   44.3600   21.0250 O.2   220  VAL220     -0.2715
    189  CB        16.9090   44.5840   18.6300 C.3   220  VAL220      0.0290
    190  CG1       18.1230   43.7650   19.0340 C.3   220  VAL220      0.0023
    191  CG2       17.0270   45.0160   17.1730 C.3   220  VAL220      0.0023
    192  N         15.6970   42.2750   20.7410 N.am  221  TYR221     -0.1974
    193  CA        15.4750   41.8660   22.1240 C.3   221  TYR221      0.1639
    194  C         16.7090   41.2570   22.7690 C.2   221  TYR221      0.2290
    195  O         17.5830   40.7180   22.0860 O.2   221  TYR221     -0.2864
    196  CB        14.3600   40.8110   22.1960 C.3   221  TYR221      0.0560
    197  CG        13.0590   41.2280   21.5630 C.ar  221  TYR221     -0.0198
    198  CD1       12.9440   41.3790   20.1870 C.ar  221  TYR221     -0.0009
    199  CD2       11.9570   41.5230   22.3480 C.ar  221  TYR221     -0.0009
    200  CE1       11.7570   41.8210   19.6120 C.ar  221  TYR221      0.0417
    201  CE2       10.7790   41.9620   21.7920 C.ar  221  TYR221      0.0417
    202  CZ        10.6800   42.1130   20.4250 C.ar  221  TYR221      0.1957
    203  OH         9.5040   42.5800   19.8910 O.3   221  TYR221     -0.2866
@<TRIPOS>BOND
     1   173   171    1
     2   163   164    1
     3   170   171    2
     4   170   169    1
     5   171   172    1
     6   168   169    1
     7   168   167    1
     8   164   167    1
     9   164   165    1
    10   180   179    1
    11   180   174    1
    12   179   178    1
    13   165   174   am
    14   165   166    2
    15   174   175    1
    16   149   148    1
    17   149   150    1
    18   178   175    1
    19   175   176    1
    20   148   145    1
    21    57    58    1
    22   150   152   ar
    23   150   151   ar
    24   147   146    2
    25   160   159    2
    26    60    59    2
    27   159   158    1
    28   146   145    1
    29   146   153   am
    30    63    65   ar
    31    63    62   ar
    32    59    58    1
    33   145   144    1
    34    58    61    1
    35   176   177    2
    36   176   181   am
    37   154   153    1
    38   154   155    1
    39   157   158    1
    40   157   155   am
    41    65    66   ar
    42   158   161    1
    43   155   156    2
    44    61    62    1
    45   144   142   am
    46    62    64   ar
    47    74    72   ar
    48   181   182    1
    49    71    72    1
    50    71    68    1
    51    67    68    1
    52    66    64   ar
    53    72    73   ar
    54   161   162    1
    55    68    69    1
    56   142   143    2
    57   142   141    1
    58   182   183    1
    59   138   139   ar
    60   138   136   ar
    61   184   183    2
    62   139   137   ar
    63   191   189    1
    64   141   140    1
    65   183   185   am
    66   162    85    1
    67    69    70    2
    68    69    75   am
    69   136   133   ar
    70   137   135   ar
    71   185   186    1
    72    55    54   ar
    73   189   186    1
    74   189   190    1
    75   140   128   am
    76    78    77    2
    77    75    76    1
    78   186   187    1
    79    85    84    1
    80   129   128    2
    81   133   135   ar
    82   133   131   ar
    83   135   134   ar
    84   128   127    1
    85    54    53    1
    86    54    56   ar
    87   200   198   ar
    88   200   202   ar
    89    84    81    1
    90    77    76    1
    91    77    80   am
    92    94    93    1
    93   203   202    1
    94    53    52    1
    95    76    79    1
    96   198   197   ar
    97    52    49    1
    98   187   192   am
    99   187   188    2
   100    51    50    2
   101   202   201   ar
   102    81    80    1
   103    81    82    1
   104   131   130    1
   105   131   132   ar
   106   134   132   ar
   107    93    92    1
   108   192   193    1
   109   130   127    1
   110   127   126    1
   111    49    50    1
   112    49    48    1
   113   197   196    1
   114   197   199   ar
   115    91    92    1
   116    91    90    1
   117   201   199   ar
   118    82    86   am
   119    82    83    2
   120    86    87    1
   121   126   122   am
   122   195   194    2
   123   193   196    1
   124   193   194    1
   125    48    45   am
   126    90    87    1
   127   106   104   ar
   128    87    88    1
   129   122   123    2
   130   122   121    1
   131    46    45    2
   132    45    44    1
   133   119   117    1
   134   124   121    1
   135   124   125    1
   136   120   121    1
   137   120   115   am
   138   104   103    1
   139   104   105   ar
   140    89    88    2
   141    88    95   am
   142   118   117    1
   143    47    44    1
   144   103   100    1
   145   114   117    1
   146   114   115    1
   147   114   113    1
   148    44    43    1
   149   115   116    2
   150    95    96    1
   151    99   100    1
   152    99    97   am
   153   100   101    1
   154   112   111    1
   155   101   107   am
   156   101   102    2
   157   107   108    1
   158    96    97    1
   159    97    98    2
   160   108   111    1
   161   108   109    1
   162    23    24   ar
   163    23    21   ar
   164    24    22   ar
   165    21    20   ar
   166    22    20   ar
   167    20    19    1
   168   109   110    2
   169    19    16    1
   170    39    37   ar
   171    39    41   ar
   172    42    41    1
   173    37    36   ar
   174    41    40   ar
   175    16    17    1
   176    16    15    1
   177    33    32    1
   178    33    34    2
   179    18    17    2
   180    32    35    1
   181    32    31    1
   182    36    35    1
   183    36    38   ar
   184    40    38   ar
   185    17    25   am
   186    30    14    1
   187    30    29    1
   188    14    13    1
   189     4     3    2
   190    25    26    1
   191    10    13    1
   192    10    11    1
   193    10     9    1
   194    26    29    1
   195    26    27    1
   196    11    12    2
   197     3     9   am
   198     3     2    1
   199     2     1    1
   200     2     5    1
   201    27    28    2
   202     7     6    1
   203     6     5    1
   204     6     8    1
