@<TRIPOS>MOLECULE
tmp/1zpcA00.pdb
 196 195 0 0 0
SMALL
GASTEIGER

@<TRIPOS>ATOM
      1  N          6.4800   53.4120   32.9260 N.3    28  LEU28      -0.1231
      2  CA         7.8470   53.6120   32.4760 C.3    28  LEU28       0.1693
      3  C          8.2970   52.5220   31.5230 C.2    28  LEU28       0.2592
      4  O          8.7380   52.7950   30.4120 O.2    28  LEU28      -0.2718
      5  CB         8.7860   53.6310   33.6810 C.3    28  LEU28       0.0284
      6  CG        10.2920   53.6680   33.4030 C.3    28  LEU28       0.0019
      7  CD1       10.6670   54.9840   32.7060 C.3    28  LEU28       0.0001
      8  CD2       11.0430   53.5240   34.7180 C.3    28  LEU28       0.0001
      9  N          8.1700   51.2790   31.9700 N.am   29  CYS29      -0.1970
     10  CA         8.6030   50.1290   31.1880 C.3    29  CYS29       0.1712
     11  C          7.8280   48.8630   31.5320 C.2    29  CYS29       0.2296
     12  O          7.0370   48.8430   32.4770 O.2    29  CYS29      -0.2864
     13  CB        10.0870   49.8960   31.4470 C.3    29  CYS29       0.0983
     14  SG        11.1580   50.9750   30.4630 S.3    29  CYS29      -0.0798
     15  N         18.2290   49.6330   30.3470 N.3    44  HIS44      -0.1226
     16  CA        18.1510   50.9660   29.7830 C.3    44  HIS44       0.1752
     17  C         16.8320   51.6450   30.1780 C.2    44  HIS44       0.2596
     18  O         16.4860   52.7160   29.6880 O.2    44  HIS44      -0.2718
     19  CB        18.2250   50.8640   28.2690 C.3    44  HIS44       0.0759
     20  CG        16.8760   50.6870   27.6460 C.ar   44  HIS44       0.0818
     21  ND1       16.4200   49.4820   27.1720 N.ar   44  HIS44      -0.2268
     22  CD2       15.8520   51.5730   27.5060 C.ar   44  HIS44       0.1154
     23  CE1       15.1610   49.6350   26.7690 C.ar   44  HIS44       0.1986
     24  NE2       14.7980   50.8880   26.9640 N.ar   44  HIS44      -0.2212
     25  N         16.0790   51.0000   31.0580 N.am   45  CYS45      -0.1970
     26  CA        14.7970   51.5440   31.4930 C.3    45  CYS45       0.1712
     27  C         14.9490   52.3920   32.7540 C.2    45  CYS45       0.2296
     28  O         13.9940   53.0060   33.2290 O.2    45  CYS45      -0.2864
     29  CB        13.8210   50.4010   31.7570 C.3    45  CYS45       0.0983
     30  SG        12.8750   49.8950   30.3090 S.3    45  CYS45      -0.0798
     31  N         21.4500   50.1390   25.3780 N.3    88  ALA88      -0.1231
     32  CA        20.6760   49.1210   24.6760 C.3    88  ALA88       0.1694
     33  C         21.3370   48.5540   23.4160 C.2    88  ALA88       0.2591
     34  O         21.5900   47.3540   23.3230 O.2    88  ALA88      -0.2718
     35  CB        19.2970   49.6810   24.3350 C.3    88  ALA88       0.0304
     36  N         21.6210   49.4210   22.4510 N.am   89  GLU89      -0.1979
     37  CA        22.2210   48.9970   21.1860 C.3    89  GLU89       0.1602
     38  C         23.5530   48.2440   21.2980 C.2    89  GLU89       0.2287
     39  O         23.9390   47.5270   20.3810 O.2    89  GLU89      -0.2864
     40  CB        22.3840   50.2100   20.2640 C.3    89  GLU89       0.0415
     41  CG        23.0970   51.4020   20.9000 C.3    89  GLU89       0.1163
     42  CD        22.2230   52.6470   20.9640 C.2    89  GLU89       0.3649
     43  OE1       21.3080   52.6940   21.8250 O.co2  89  GLU89      -0.2457
     44  OE2       22.4440   53.5710   20.1410 O.co2  89  GLU89      -0.2457
     45  N         20.6210   45.6450   10.0880 N.3   162  TYR162     -0.1241
     46  CA        21.1920   46.6500   10.9640 C.3   162  TYR162      0.1605
     47  C         22.6480   46.9670   10.6860 C.2   162  TYR162      0.2264
     48  O         23.5220   46.7330   11.5300 O.2   162  TYR162     -0.2867
     49  CB        21.0180   46.2300   12.4200 C.3   162  TYR162      0.0534
     50  CG        19.6150   46.4640   12.9140 C.ar  162  TYR162     -0.0201
     51  CD1       18.6660   45.4390   12.9300 C.ar  162  TYR162     -0.0009
     52  CD2       19.2200   47.7290   13.3040 C.ar  162  TYR162     -0.0009
     53  CE1       17.3620   45.6830   13.3210 C.ar  162  TYR162      0.0417
     54  CE2       17.9220   47.9830   13.6930 C.ar  162  TYR162      0.0417
     55  CZ        16.9970   46.9600   13.6990 C.ar  162  TYR162      0.1957
     56  OH        15.7070   47.2240   14.0820 O.3   162  TYR162     -0.2866
     57  N         25.5840   48.5110   12.8810 N.3   165  HIS165     -0.1241
     58  CA        25.3170   47.9830   14.2080 C.3   165  HIS165      0.1621
     59  C         25.9060   46.5950   14.3830 C.2   165  HIS165      0.2264
     60  O         26.1180   45.8740   13.4090 O.2   165  HIS165     -0.2867
     61  CB        23.8120   47.9430   14.4610 C.3   165  HIS165      0.0745
     62  CG        23.2740   49.2140   15.0280 C.ar  165  HIS165      0.0817
     63  ND1       22.6220   50.1600   14.2710 N.ar  165  HIS165     -0.2268
     64  CD2       23.3300   49.7070   16.2880 C.ar  165  HIS165      0.1154
     65  CE1       22.2960   51.1890   15.0420 C.ar  165  HIS165      0.1986
     66  NE2       22.7160   50.9370   16.2660 N.ar  165  HIS165     -0.2212
     67  N          5.4160   44.9190   15.7510 N.3   182  ASP182     -0.1225
     68  CA         6.6720   45.1140   16.4600 C.3   182  ASP182      0.1805
     69  C          6.4260   45.7950   17.8100 C.2   182  ASP182      0.2598
     70  O          5.3180   46.2400   18.1080 O.2   182  ASP182     -0.2718
     71  CB         7.5880   45.9750   15.5630 C.3   182  ASP182      0.1424
     72  CG         9.0230   46.0760   16.0740 C.2   182  ASP182      0.3668
     73  OD1        9.4270   45.2580   16.9350 O.co2 182  ASP182     -0.2456
     74  OD2        9.7510   46.9740   15.5870 O.co2 182  ASP182     -0.2456
     75  N          7.4620   45.8520   18.6350 N.am  183  ALA183     -0.1966
     76  CA         7.3710   46.5130   19.9210 C.3   183  ALA183      0.1728
     77  C          7.6300   47.9860   19.6050 C.2   183  ALA183      0.2616
     78  O          8.0770   48.3190   18.5040 O.2   183  ALA183     -0.2715
     79  CB         8.4380   45.9750   20.8510 C.3   183  ALA183      0.0334
     80  N          7.3510   48.8720   20.5490 N.am  184  CYS184     -0.1954
     81  CA         7.5800   50.2870   20.3140 C.3   184  CYS184      0.1843
     82  C          7.8200   50.9880   21.6490 C.2   184  CYS184      0.2625
     83  O          7.8250   50.3400   22.6910 O.2   184  CYS184     -0.2714
     84  CB         6.3850   50.8940   19.5710 C.3   184  CYS184      0.0997
     85  SG         6.7800   52.4310   18.6650 S.3   184  CYS184     -0.0797
     86  N          8.0250   52.3010   21.6230 N.am  185  LYS185     -0.1963
     87  CA         8.3000   53.0340   22.8570 C.3   185  LYS185      0.1728
     88  C          7.3010   52.7130   23.9640 C.2   185  LYS185      0.2617
     89  O          6.0930   52.8630   23.7980 O.2   185  LYS185     -0.2715
     90  CB         8.3380   54.5470   22.6010 C.3   185  LYS185      0.0311
     91  CG         9.2020   54.9400   21.4050 C.3   185  LYS185      0.0038
     92  CD        10.4530   54.0520   21.2980 C.3   185  LYS185      0.0206
     93  CE        11.1870   54.2400   19.9690 C.3   185  LYS185      0.1093
     94  NZ        12.1570   55.3730   19.9630 N.3   185  LYS185     -0.1314
     95  N          7.8220   52.2560   25.0970 N.am  186  GLY186     -0.1940
     96  CA         6.9710   51.9130   26.2150 C.3   186  GLY186      0.2014
     97  C          6.8940   50.4190   26.4510 C.2   186  GLY186      0.2639
     98  O          6.4840   49.9870   27.5220 O.2   186  GLY186     -0.2714
     99  N          7.2770   49.6270   25.4550 N.am  187  ASP187     -0.1957
    100  CA         7.2460   48.1740   25.5880 C.3   187  ASP187      0.1840
    101  C          8.5580   47.6470   26.1720 C.2   187  ASP187      0.2622
    102  O          8.6420   46.5010   26.6220 O.2   187  ASP187     -0.2715
    103  CB         6.9800   47.5130   24.2290 C.3   187  ASP187      0.1450
    104  CG         5.5810   47.7960   23.7020 C.2   187  ASP187      0.3671
    105  OD1        4.6150   47.6740   24.4860 O.co2 187  ASP187     -0.2456
    106  OD2        5.4400   48.1310   22.5040 O.co2 187  ASP187     -0.2456
    107  N          9.5760   48.5020   26.1590 N.am  188  SER188     -0.1950
    108  CA        10.9030   48.1770   26.6770 C.3   188  SER188      0.1924
    109  C         10.8070   47.4550   28.0190 C.2   188  SER188      0.2314
    110  O          9.9850   47.8180   28.8630 O.2   188  SER188     -0.2863
    111  CB        11.7230   49.4630   26.8420 C.3   188  SER188      0.2116
    112  OG        12.1960   49.9610   25.6030 O.3   188  SER188     -0.2180
    113  N         12.3050   42.9900   25.4300 N.3   206  THR206     -0.1203
    114  CA        12.1970   44.0940   24.4840 C.3   206  THR206      0.1994
    115  C         13.2900   45.1130   24.7870 C.2   206  THR206      0.2619
    116  O         13.4010   45.6010   25.9130 O.2   206  THR206     -0.2717
    117  CB        10.8200   44.7590   24.5910 C.3   206  THR206      0.1784
    118  OG1        9.8000   43.7690   24.3710 O.3   206  THR206     -0.2211
    119  CG2       10.6790   45.8780   23.5500 C.3   206  THR206      0.0376
    120  N         14.0870   45.4490   23.7750 N.am  207  SER207     -0.1937
    121  CA        15.2050   46.3620   23.9740 C.3   207  SER207      0.2055
    122  C         15.2870   47.5690   23.0240 C.2   207  SER207      0.2643
    123  O         15.2550   48.7100   23.4700 O.2   207  SER207     -0.2714
    124  CB        16.5010   45.5420   23.9130 C.3   207  SER207      0.2130
    125  OG        17.6520   46.3310   24.1410 O.3   207  SER207     -0.2179
    126  N         15.4060   47.3300   21.7220 N.am  208  TRP208     -0.1959
    127  CA        15.5040   48.4400   20.7760 C.3   208  TRP208      0.1771
    128  C         15.2040   48.0410   19.3350 C.2   208  TRP208      0.2620
    129  O         14.9260   46.8770   19.0430 O.2   208  TRP208     -0.2715
    130  CB        16.9010   49.0920   20.8400 C.3   208  TRP208      0.0590
    131  CG        18.0370   48.1930   20.4130 C.ar  208  TRP208      0.0006
    132  CD1       18.6250   47.2060   21.1520 C.ar  208  TRP208      0.0946
    133  CD2       18.7000   48.1890   19.1360 C.ar  208  TRP208      0.0152
    134  NE1       19.6140   46.5900   20.4110 N.ar  208  TRP208     -0.2442
    135  CE2       19.6780   47.1760   19.1730 C.ar  208  TRP208      0.0810
    136  CE3       18.5610   48.9470   17.9690 C.ar  208  TRP208      0.0012
    137  CZ2       20.5120   46.8980   18.0880 C.ar  208  TRP208      0.0191
    138  CZ3       19.3910   48.6730   16.8890 C.ar  208  TRP208      0.0001
    139  CH2       20.3540   47.6570   16.9580 C.ar  208  TRP208      0.0015
    140  N         15.2600   49.0310   18.4480 N.am  209  GLY209     -0.1940
    141  CA        15.0030   48.8270   17.0340 C.3   209  GLY209      0.2014
    142  C         14.9710   50.1660   16.3090 C.2   209  GLY209      0.2639
    143  O         14.7720   51.2050   16.9340 O.2   209  GLY209     -0.2714
    144  N         15.1750   50.1700   14.9960 N.am  210  GLU210     -0.1963
    145  CA        15.1360   51.4310   14.2700 C.3   210  GLU210      0.1733
    146  C         13.6840   51.7900   14.0170 C.2   210  GLU210      0.2617
    147  O         13.0510   51.2490   13.1180 O.2   210  GLU210     -0.2715
    148  CB        15.8850   51.3260   12.9420 C.3   210  GLU210      0.0429
    149  CG        15.9370   52.6350   12.1760 C.3   210  GLU210      0.1163
    150  CD        16.5680   53.7740   12.9760 C.2   210  GLU210      0.3649
    151  OE1       17.8040   53.7720   13.1590 O.co2 210  GLU210     -0.2457
    152  OE2       15.8220   54.6770   13.4230 O.co2 210  GLU210     -0.2457
    153  N         13.1570   52.7100   14.8160 N.am  211  GLY211     -0.1940
    154  CA        11.7690   53.1030   14.6640 C.3   211  GLY211      0.2014
    155  C         10.8750   52.0010   15.2110 C.2   211  GLY211      0.2639
    156  O         11.2250   51.3200   16.1810 O.2   211  GLY211     -0.2714
    157  N          9.7170   51.8100   14.5910 N.am  212  CYS212     -0.1967
    158  CA         8.7910   50.7700   15.0260 C.3   212  CYS212      0.1712
    159  C          8.0720   50.1180   13.8500 C.2   212  CYS212      0.2296
    160  O          7.4690   50.8020   13.0250 O.2   212  CYS212     -0.2864
    161  CB         7.7520   51.3510   15.9910 C.3   212  CYS212      0.0983
    162  SG         8.4290   51.9550   17.5720 S.3   212  CYS212     -0.0798
    163  N         13.3050   45.9060    9.3590 N.3   217  ARG217     -0.1245
    164  CA        13.8580   46.4230   10.6070 C.3   217  ARG217      0.1563
    165  C         13.2740   45.6390   11.7870 C.2   217  ARG217      0.2260
    166  O         12.3900   46.1140   12.5020 O.2   217  ARG217     -0.2867
    167  CB        13.5390   47.9040   10.7660 C.3   217  ARG217      0.0307
    168  CG        14.3050   48.8120    9.8310 C.3   217  ARG217      0.0489
    169  CD        15.7960   48.8320   10.1300 C.3   217  ARG217      0.2205
    170  NE        16.4210   49.9940    9.5070 N.pl3 217  ARG217     -0.0865
    171  CZ        17.7080   50.3070    9.6080 C.cat 217  ARG217      0.5346
    172  NH1       18.5320   49.5410   10.3120 N.pl3 217  ARG217      0.1354
    173  NH2       18.1740   51.3930    9.0040 N.pl3 217  ARG217      0.1354
    174  N         12.6870   43.8430   15.4010 N.3   219  GLY219     -0.1210
    175  CA        12.8620   44.3790   16.7320 C.3   219  GLY219      0.1956
    176  C         14.0300   43.6320   17.3490 C.2   219  GLY219      0.2612
    177  O         14.2320   42.4480   17.0640 O.2   219  GLY219     -0.2717
    178  N         14.8160   44.3090   18.1810 N.am  220  VAL220     -0.1965
    179  CA        15.9540   43.6570   18.8120 C.3   220  VAL220      0.1727
    180  C         15.6800   43.3710   20.2900 C.2   220  VAL220      0.2616
    181  O         15.2200   44.2340   21.0330 O.2   220  VAL220     -0.2715
    182  CB        17.2360   44.5090   18.6690 C.3   220  VAL220      0.0290
    183  CG1       18.4290   43.7310   19.2070 C.3   220  VAL220      0.0023
    184  CG2       17.4540   44.8820   17.2020 C.3   220  VAL220      0.0023
    185  N         15.9660   42.1480   20.7110 N.am  221  TYR221     -0.1974
    186  CA        15.7240   41.7590   22.0870 C.3   221  TYR221      0.1639
    187  C         16.9520   41.1620   22.7680 C.2   221  TYR221      0.2290
    188  O         17.8390   40.5990   22.1120 O.2   221  TYR221     -0.2864
    189  CB        14.5950   40.7240   22.1480 C.3   221  TYR221      0.0560
    190  CG        13.3040   41.1650   21.5090 C.ar  221  TYR221     -0.0198
    191  CD1       13.1680   41.2180   20.1230 C.ar  221  TYR221     -0.0009
    192  CD2       12.2250   41.5440   22.2930 C.ar  221  TYR221     -0.0009
    193  CE1       11.9850   41.6390   19.5380 C.ar  221  TYR221      0.0417
    194  CE2       11.0430   41.9620   21.7220 C.ar  221  TYR221      0.0417
    195  CZ        10.9230   42.0120   20.3470 C.ar  221  TYR221      0.1957
    196  OH         9.7300   42.4390   19.8020 O.3   221  TYR221     -0.2866
@<TRIPOS>BOND
     1   173   171    1
     2   163   164    1
     3   170   171    2
     4   170   169    1
     5   171   172    1
     6   168   169    1
     7   168   167    1
     8    45    46    1
     9   164   167    1
    10   164   165    1
    11    47    46    1
    12    47    48    2
    13    46    49    1
    14   165   166    2
    15   149   148    1
    16   149   150    1
    17    49    50    1
    18    57    58    1
    19    50    51   ar
    20    50    52   ar
    21    51    53   ar
    22   148   145    1
    23   150   151   ar
    24   150   152   ar
    25   160   159    2
    26   147   146    2
    27    52    54   ar
    28    53    55   ar
    29    60    59    2
    30    54    55   ar
    31    55    56    1
    32   159   158    1
    33   146   145    1
    34   146   153   am
    35    58    59    1
    36    58    61    1
    37   145   144    1
    38    63    62   ar
    39    63    65   ar
    40    61    62    1
    41   157   158    1
    42   157   155   am
    43   154   153    1
    44   154   155    1
    45   144   142   am
    46   158   161    1
    47    62    64   ar
    48    65    66   ar
    49   155   156    2
    50   174   175    1
    51    71    72    1
    52    71    68    1
    53    74    72   ar
    54    67    68    1
    55   161   162    1
    56    72    73   ar
    57    66    64   ar
    58   142   143    2
    59   142   141    1
    60    68    69    1
    61   175   176    1
    62   138   139   ar
    63   138   136   ar
    64   139   137   ar
    65   141   140    1
    66   177   176    2
    67   184   182    1
    68   176   178   am
    69   162    85    1
    70    69    70    2
    71    69    75   am
    72   136   133   ar
    73   137   135   ar
    74   178   179    1
    75   140   128   am
    76    78    77    2
    77    75    76    1
    78    85    84    1
    79   182   179    1
    80   182   183    1
    81   179   180    1
    82   129   128    2
    83   133   135   ar
    84   133   131   ar
    85   135   134   ar
    86   128   127    1
    87   193   191   ar
    88   193   195   ar
    89    84    81    1
    90    77    76    1
    91    77    80   am
    92   196   195    1
    93    76    79    1
    94    94    93    1
    95    93    92    1
    96   191   190   ar
    97    44    42   ar
    98    40    41    1
    99    40    37    1
   100   180   185   am
   101   180   181    2
   102    81    80    1
   103    81    82    1
   104   195   194   ar
   105    39    38    2
   106   134   132   ar
   107   131   130    1
   108   131   132   ar
   109   185   186    1
   110   127   130    1
   111   127   126    1
   112    41    42    1
   113    42    43   ar
   114    37    38    1
   115    37    36    1
   116    92    91    1
   117    91    90    1
   118   190   189    1
   119   190   192   ar
   120    86    82   am
   121    86    87    1
   122    82    83    2
   123   126   122   am
   124   194   192   ar
   125   186   189    1
   126   186   187    1
   127   188   187    2
   128    36    33   am
   129   106   104   ar
   130    90    87    1
   131    87    88    1
   132   122   123    2
   133   122   121    1
   134    34    33    2
   135    33    32    1
   136   119   117    1
   137   104   103    1
   138   104   105   ar
   139   120   121    1
   140   120   115   am
   141    89    88    2
   142   124   121    1
   143   124   125    1
   144    88    95   am
   145   103   100    1
   146    35    32    1
   147   118   117    1
   148   114   117    1
   149   114   115    1
   150   114   113    1
   151    32    31    1
   152   115   116    2
   153    95    96    1
   154    99   100    1
   155    99    97   am
   156   100   101    1
   157   112   111    1
   158   107   101   am
   159   107   108    1
   160   101   102    2
   161    96    97    1
   162    97    98    2
   163   108   111    1
   164   108   109    1
   165    23    24   ar
   166    23    21   ar
   167    24    22   ar
   168    21    20   ar
   169    22    20   ar
   170    20    19    1
   171   109   110    2
   172    19    16    1
   173    18    17    2
   174    16    17    1
   175    16    15    1
   176    17    25   am
   177    30    14    1
   178    30    29    1
   179     4     3    2
   180    14    13    1
   181    25    26    1
   182    10    13    1
   183    10    11    1
   184    10     9    1
   185    26    29    1
   186    26    27    1
   187     3     9   am
   188     3     2    1
   189    11    12    2
   190     2     1    1
   191     2     5    1
   192     7     6    1
   193    27    28    2
   194     6     5    1
   195     6     8    1
