@<TRIPOS>MOLECULE
tmp/1zpdD02.pdb
 141 135 0 0 0
SMALL
GASTEIGER

@<TRIPOS>ATOM
      1  N          1.6060   -2.6600  -17.3480 N.3    81  ASP81      -0.1239
      2  CA         2.9690   -2.6460  -17.8660 C.3    81  ASP81       0.1674
      3  C          3.1770   -1.4880  -18.8540 C.2    81  ASP81       0.2266
      4  O          4.1830   -0.7680  -18.8340 O.2    81  ASP81      -0.2867
      5  CB         3.2660   -4.0090  -18.5190 C.3    81  ASP81       0.1410
      6  CG         4.7100   -4.3790  -18.7080 C.2    81  ASP81       0.3668
      7  OD1        5.5830   -3.4810  -18.7340 O.co2  81  ASP81      -0.2456
      8  OD2        5.0190   -5.6000  -18.8420 O.co2  81  ASP81      -0.2456
      9  N         13.7080   -1.6410  -29.1480 N.3   387  THR387     -0.1203
     10  CA        14.8240   -2.1180  -28.3170 C.3   387  THR387      0.1994
     11  C         15.4530   -3.3480  -29.0040 C.2   387  THR387      0.2618
     12  O         14.7780   -4.3280  -29.3420 O.2   387  THR387     -0.2717
     13  CB        14.3410   -2.5140  -26.9080 C.3   387  THR387      0.1784
     14  OG1       13.8480   -1.3210  -26.2410 O.3   387  THR387     -0.2211
     15  CG2       15.4690   -3.1520  -26.0940 C.3   387  THR387      0.0376
     16  N         16.7620   -3.3230  -29.1190 N.am  388  GLY388     -0.1942
     17  CA        17.5390   -4.3470  -29.8340 C.3   388  GLY388      0.2014
     18  C         18.6160   -3.6520  -30.6480 C.2   388  GLY388      0.2639
     19  O         18.8540   -2.4480  -30.4140 O.2   388  GLY388     -0.2714
     20  N         19.1990   -4.3170  -31.6640 N.am  389  ASP389     -0.1957
     21  CA        20.2090   -3.6420  -32.4830 C.3   389  ASP389      0.1840
     22  C         19.6200   -2.5030  -33.3110 C.2   389  ASP389      0.2622
     23  O         20.3190   -1.5940  -33.7690 O.2   389  ASP389     -0.2715
     24  CB        21.0180   -4.6220  -33.3520 C.3   389  ASP389      0.1450
     25  CG        22.3740   -4.0580  -33.7480 C.2   389  ASP389      0.3671
     26  OD1       23.0090   -3.3010  -32.9830 O.co2 389  ASP389     -0.2456
     27  OD2       22.8330   -4.3630  -34.8780 O.co2 389  ASP389     -0.2456
     28  N         18.3110   -2.4920  -33.5260 N.am  390  SER390     -0.1950
     29  CA        17.5910   -1.3960  -34.1750 C.3   390  SER390      0.1924
     30  C         17.8230   -0.0650  -33.4240 C.2   390  SER390      0.2314
     31  O         17.7820    0.9920  -34.0870 O.2   390  SER390     -0.2863
     32  CB        16.0980   -1.6490  -34.2960 C.3   390  SER390      0.2116
     33  OG        15.7880   -2.6230  -35.2790 O.3   390  SER390     -0.2180
     34  N         12.0100    0.3350  -22.2180 N.3   412  GLY412     -0.1210
     35  CA        12.6730   -0.7250  -22.9880 C.3   412  GLY412      0.1956
     36  C         11.9790   -2.0950  -22.9310 C.2   412  GLY412      0.2612
     37  O         12.6540   -3.1240  -22.7800 O.2   412  GLY412     -0.2717
     38  N         10.6780   -2.1110  -23.1170 N.am  413  HIS413     -0.1961
     39  CA         9.8920   -3.3360  -23.2020 C.3   413  HIS413      0.1787
     40  C          9.9150   -3.8560  -24.6490 C.2   413  HIS413      0.2620
     41  O          9.2640   -3.2530  -25.5200 O.2   413  HIS413     -0.2715
     42  CB         8.4530   -3.0290  -22.7770 C.3   413  HIS413      0.0785
     43  CG         7.4930   -4.1750  -22.7230 C.ar  413  HIS413      0.0821
     44  ND1        7.2090   -4.9620  -23.8290 N.ar  413  HIS413     -0.2267
     45  CD2        6.7550   -4.6910  -21.6990 C.ar  413  HIS413      0.1154
     46  CE1        6.3290   -5.8900  -23.4870 C.ar  413  HIS413      0.1986
     47  NE2        6.0520   -5.7640  -22.1960 N.ar  413  HIS413     -0.2212
     48  N         10.6700   -4.9310  -24.9190 N.am  414  ILE414     -0.1977
     49  CA        10.7050   -5.4260  -26.3170 C.3   414  ILE414      0.1596
     50  C          9.2840   -5.7700  -26.7360 C.2   414  ILE414      0.2287
     51  O          8.4610   -6.2490  -25.9430 O.2   414  ILE414     -0.2864
     52  CB        11.6740   -6.5950  -26.5490 C.3   414  ILE414      0.0276
     53  CG1       11.3130   -7.8130  -25.6480 C.3   414  ILE414      0.0022
     54  CG2       13.1230   -6.1910  -26.3170 C.3   414  ILE414      0.0022
     55  CD1       11.9870   -9.0870  -26.1670 C.3   414  ILE414      0.0001
     56  N         13.0670   -6.0200  -34.4100 N.3   438  GLY438     -0.1210
     57  CA        13.7670   -7.3130  -34.4170 C.3   438  GLY438      0.1956
     58  C         12.7750   -8.4700  -34.3490 C.2   438  GLY438      0.2612
     59  O         11.6480   -8.2880  -33.8940 O.2   438  GLY438     -0.2717
     60  N         13.2190   -9.6760  -34.7480 N.am  439  ASP439     -0.1959
     61  CA        12.3520  -10.8560  -34.7220 C.3   439  ASP439      0.1840
     62  C         11.9150  -11.2160  -33.2930 C.2   439  ASP439      0.2623
     63  O         10.7470  -11.5190  -33.0590 O.2   439  ASP439     -0.2715
     64  CB        13.0750  -12.0520  -35.3680 C.3   439  ASP439      0.1450
     65  CG        14.4450  -12.3850  -34.8210 C.2   439  ASP439      0.3671
     66  OD1       15.1810  -11.5290  -34.2720 O.co2 439  ASP439     -0.2456
     67  OD2       14.8370  -13.5880  -34.9360 O.co2 439  ASP439     -0.2456
     68  N         12.8340  -11.1710  -32.3380 N.am  440  GLY440     -0.1940
     69  CA        12.5360  -11.5310  -30.9420 C.3   440  GLY440      0.2014
     70  C         11.4390  -10.6240  -30.3670 C.2   440  GLY440      0.2639
     71  O         10.4360  -11.1010  -29.8250 O.2   440  GLY440     -0.2714
     72  N         11.6000   -9.3090  -30.5250 N.am  441  SER441     -0.1949
     73  CA        10.6100   -8.3160  -30.0760 C.3   441  SER441      0.1924
     74  C          9.2650   -8.4960  -30.7480 C.2   441  SER441      0.2314
     75  O          8.2100   -8.4310  -30.1050 O.2   441  SER441     -0.2863
     76  CB        11.1010   -6.8740  -30.3260 C.3   441  SER441      0.2116
     77  OG        12.3270   -6.6450  -29.6580 O.3   441  SER441     -0.2180
     78  N          6.4220  -10.7370  -29.2940 N.3   444  LEU444     -0.1245
     79  CA         5.6490  -10.4540  -28.0740 C.3   444  LEU444      0.1561
     80  C          4.3220   -9.7650  -28.3670 C.2   444  LEU444      0.2260
     81  O          3.3620   -9.8790  -27.6020 O.2   444  LEU444     -0.2867
     82  CB         6.4260   -9.5210  -27.1330 C.3   444  LEU444      0.0270
     83  CG         7.5110  -10.1580  -26.2650 C.3   444  LEU444      0.0019
     84  CD1        8.8410  -10.1760  -27.0010 C.3   444  LEU444      0.0001
     85  CD2        7.6590   -9.4450  -24.9270 C.3   444  LEU444      0.0001
     86  N         13.7970   -7.5240  -38.7060 N.3   464  ILE464     -0.1245
     87  CA        15.2010   -7.9410  -38.7830 C.3   464  ILE464      0.1561
     88  C         15.3270   -9.3980  -38.2990 C.2   464  ILE464      0.2260
     89  O         15.3370   -9.6740  -37.0840 O.2   464  ILE464     -0.2867
     90  CB        16.1070   -6.9850  -38.0050 C.3   464  ILE464      0.0252
     91  CG1       15.8160   -5.5000  -38.3160 C.3   464  ILE464      0.0019
     92  CG2       17.5720   -7.3140  -38.2710 C.3   464  ILE464      0.0019
     93  CD1       15.8680   -5.0870  -39.7800 C.3   464  ILE464      0.0001
     94  N         17.4390  -12.1440  -37.5710 N.3   466  ASN466     -0.1240
     95  CA        18.7710  -12.6610  -37.2540 C.3   466  ASN466      0.1653
     96  C         18.6430  -13.9100  -36.3650 C.2   466  ASN466      0.2266
     97  O         19.5880  -14.3120  -35.6810 O.2   466  ASN466     -0.2867
     98  CB        19.6490  -11.6030  -36.6070 C.3   466  ASN466      0.1155
     99  CG        19.0450  -10.9240  -35.3800 C.2   466  ASN466      0.2627
    100  OD1       18.0440  -11.3910  -34.8490 O.2   466  ASN466     -0.2716
    101  ND2       19.6390   -9.8290  -34.9100 N.am  466  ASN466     -0.0877
    102  N         16.9050  -14.7760  -33.3430 N.3   468  GLY468     -0.1210
    103  CA        17.1250  -14.7410  -31.8870 C.3   468  GLY468      0.1956
    104  C         17.3850  -13.3560  -31.3100 C.2   468  GLY468      0.2612
    105  O         17.2490  -12.3310  -31.9960 O.2   468  GLY468     -0.2717
    106  N         17.8450  -13.3380  -30.0560 N.am  469  TYR469     -0.1962
    107  CA        18.0240  -12.0890  -29.2940 C.3   469  TYR469      0.1771
    108  C         19.4700  -11.6230  -29.3720 C.2   469  TYR469      0.2620
    109  O         20.2390  -11.8090  -28.4210 O.2   469  TYR469     -0.2715
    110  CB        17.6070  -12.2990  -27.8370 C.3   469  TYR469      0.0574
    111  CG        16.2080  -12.7190  -27.4750 C.ar  469  TYR469     -0.0198
    112  CD1       15.0860  -12.3970  -28.2250 C.ar  469  TYR469     -0.0009
    113  CD2       16.0070  -13.4580  -26.3000 C.ar  469  TYR469     -0.0009
    114  CE1       13.8180  -12.7950  -27.8520 C.ar  469  TYR469      0.0417
    115  CE2       14.7430  -13.8730  -25.9040 C.ar  469  TYR469      0.0417
    116  CZ        13.6560  -13.5300  -26.6760 C.ar  469  TYR469      0.1957
    117  OH        12.3990  -13.9400  -26.2860 O.3   469  TYR469     -0.2866
    118  N         19.8810  -10.9620  -30.4640 N.am  470  THR470     -0.1937
    119  CA        21.2970  -10.6070  -30.6180 C.3   470  THR470      0.2028
    120  C         21.7990   -9.6360  -29.5650 C.2   470  THR470      0.2642
    121  O         22.9050   -9.8520  -29.0550 O.2   470  THR470     -0.2714
    122  CB        21.5730  -10.0680  -32.0450 C.3   470  THR470      0.1808
    123  OG1       21.6110  -11.2080  -32.9340 O.3   470  THR470     -0.2208
    124  CG2       22.9080   -9.3410  -32.1470 C.3   470  THR470      0.0379
    125  N         21.0300   -8.5930  -29.2010 N.am  471  ILE471     -0.1963
    126  CA        21.5080   -7.7100  -28.1160 C.3   471  ILE471      0.1727
    127  C         21.7370   -8.5020  -26.8340 C.2   471  ILE471      0.2616
    128  O         22.7610   -8.2950  -26.1700 O.2   471  ILE471     -0.2715
    129  CB        20.5350   -6.5300  -27.8620 C.3   471  ILE471      0.0290
    130  CG1       21.0660   -5.6280  -26.7410 C.3   471  ILE471      0.0022
    131  CG2       19.1390   -7.0050  -27.5000 C.3   471  ILE471      0.0023
    132  CD1       20.4760   -5.9350  -25.3730 C.3   471  ILE471      0.0001
    133  N         20.8900   -9.4590  -26.4670 N.am  472  GLU472     -0.1977
    134  CA        21.1270  -10.3010  -25.2860 C.3   472  GLU472      0.1602
    135  C         22.3540  -11.2050  -25.4410 C.2   472  GLU472      0.2287
    136  O         23.1440  -11.4060  -24.5190 O.2   472  GLU472     -0.2864
    137  CB        19.8700  -11.0910  -24.9500 C.3   472  GLU472      0.0415
    138  CG        19.5430  -11.1630  -23.4640 C.3   472  GLU472      0.1163
    139  CD        18.9620   -9.8680  -22.8950 C.2   472  GLU472      0.3649
    140  OE1       19.5480   -8.7710  -23.0520 O.co2 472  GLU472     -0.2457
    141  OE2       17.8850   -9.9370  -22.2660 O.co2 472  GLU472     -0.2457
@<TRIPOS>BOND
     1    93    91    1
     2    87    86    1
     3    87    88    1
     4    87    90    1
     5    91    90    1
     6    88    89    2
     7    92    90    1
     8    94    95    1
     9    95    98    1
    10    95    96    1
    11    98    99    1
    12    96    97    2
    13    99   101   am
    14    99   100    2
    15    64    65    1
    16    64    61    1
    17    33    32    1
    18    67    65   ar
    19    27    25   ar
    20    65    66   ar
    21    60    61    1
    22    60    58   am
    23    61    62    1
    24    57    56    1
    25    57    58    1
    26    58    59    2
    27    32    29    1
    28    29    28    1
    29    29    30    1
    30    31    30    2
    31    23    22    2
    32    25    24    1
    33    25    26   ar
    34    28    22   am
    35    24    21    1
    36   102   103    1
    37    22    21    1
    38    62    63    2
    39    62    68   am
    40   123   122    1
    41    21    20    1
    42    68    69    1
    43   124   122    1
    44   122   119    1
    45   105   104    2
    46   103   104    1
    47    20    18   am
    48   104   106   am
    49    69    70    1
    50    74    75    2
    51    74    73    1
    52    18    19    2
    53    18    17    1
    54   119   118    1
    55   119   120    1
    56    72    70   am
    57    72    73    1
    58   118   108   am
    59    70    71    2
    60    76    73    1
    61    76    77    1
    62   106   107    1
    63    17    16    1
    64   120   125   am
    65   120   121    2
    66   108   107    1
    67   108   109    2
    68    12    11    2
    69    78    79    1
    70   107   110    1
    71   125   126    1
    72     9    10    1
    73    16    11   am
    74    11    10    1
    75    80    79    1
    76    80    81    2
    77    10    13    1
    78   112   114   ar
    79   112   111   ar
    80   126   129    1
    81   126   127    1
    82    79    82    1
    83   129   131    1
    84   129   130    1
    85   114   116   ar
    86   110   111    1
    87   111   113   ar
    88    82    83    1
    89    84    83    1
    90    13    14    1
    91    13    15    1
    92   127   133   am
    93   127   128    2
    94   130   132    1
    95    50    49    1
    96    50    51    2
    97   116   117    1
    98   116   115   ar
    99    52    54    1
   100    52    49    1
   101    52    53    1
   102   133   134    1
   103    49    48    1
   104   113   115   ar
   105    83    85    1
   106    55    53    1
   107    41    40    2
   108   135   134    1
   109   135   136    2
   110   134   137    1
   111   137   138    1
   112    48    40   am
   113    40    39    1
   114    44    46   ar
   115    44    43   ar
   116    46    47   ar
   117   138   139    1
   118    39    38    1
   119    39    42    1
   120    38    36   am
   121   140   139   ar
   122    35    36    1
   123    35    34    1
   124    36    37    2
   125   139   141   ar
   126    42    43    1
   127    43    45   ar
   128    47    45   ar
   129     3     4    2
   130     3     2    1
   131     8     6   ar
   132     7     6   ar
   133     6     5    1
   134     5     2    1
   135     2     1    1
