@<TRIPOS>MOLECULE
tmp/1zplB00.pdb
 90 87 0 0 0
SMALL
GASTEIGER

@<TRIPOS>ATOM
      1  N          1.3980  -12.8010   16.3330 N.3    37  ALA37      -0.1231
      2  CA         1.3750  -14.1510   15.7810 C.3    37  ALA37       0.1694
      3  C          0.7990  -15.1920   16.7420 C.2    37  ALA37       0.2592
      4  O          0.4850  -16.3110   16.3320 O.2    37  ALA37      -0.2718
      5  CB         2.7900  -14.5590   15.3710 C.3    37  ALA37       0.0304
      6  N          0.6440  -14.8240   18.0110 N.am   38  ASN38      -0.1974
      7  CA         0.1420  -15.7730   19.0030 C.3    38  ASN38       0.1688
      8  C         -1.0560  -15.2800   19.8090 C.2    38  ASN38       0.2292
      9  O         -0.9000  -14.8460   20.9530 O.2    38  ASN38      -0.2864
     10  CB         1.2780  -16.1460   19.9640 C.3    38  ASN38       0.1181
     11  CG         2.5810  -16.4290   19.2390 C.2    38  ASN38       0.2629
     12  OD1        3.4670  -15.5790   19.1710 O.2    38  ASN38      -0.2716
     13  ND2        2.6960  -17.6190   18.6760 N.am   38  ASN38      -0.0877
     14  N         -4.6740  -12.5690    8.6500 N.3    82  ASP82      -0.1225
     15  CA        -3.6970  -13.4160    9.3200 C.3    82  ASP82       0.1805
     16  C         -2.5000  -12.5830    9.7720 C.2    82  ASP82       0.2598
     17  O         -2.3410  -11.4280    9.3700 O.2    82  ASP82      -0.2718
     18  CB        -3.2460  -14.5360    8.3760 C.3    82  ASP82       0.1424
     19  CG        -2.5650  -15.6830    9.1090 C.2    82  ASP82       0.3668
     20  OD1       -2.8950  -15.9290   10.2890 O.co2  82  ASP82      -0.2456
     21  OD2       -1.7070  -16.3520    8.5000 O.co2  82  ASP82      -0.2456
     22  N         -1.6630  -13.1850   10.6090 N.am   83  THR83      -0.1953
     23  CA        -0.4750  -12.5370   11.1620 C.3    83  THR83       0.1897
     24  C          0.3150  -11.6000   10.2410 C.2    83  THR83       0.2313
     25  O          0.4050  -10.4010   10.5050 O.2    83  THR83      -0.2863
     26  CB         0.4940  -13.5910   11.7110 C.3    83  THR83       0.1794
     27  OG1       -0.1890  -14.4040   12.6700 O.3    83  THR83      -0.2208
     28  CG2        1.6930  -12.9250   12.3750 C.3    83  THR83       0.0378
     29  N         -0.8820  -10.3640    4.0930 N.3    87  ARG87      -0.1245
     30  CA        -2.0530  -11.2160    3.9380 C.3    87  ARG87       0.1563
     31  C         -3.3350  -10.5700    4.4230 C.2    87  ARG87       0.2260
     32  O         -4.3720  -11.2200    4.5240 O.2    87  ARG87      -0.2867
     33  CB        -1.8170  -12.5560    4.6350 C.3    87  ARG87       0.0307
     34  CG        -0.9830  -13.4640    3.7650 C.3    87  ARG87       0.0489
     35  CD        -0.3140  -14.5540    4.5280 C.3    87  ARG87       0.2205
     36  NE         0.9700  -14.8580    3.9070 N.pl3  87  ARG87      -0.0865
     37  CZ         1.8320  -15.7530    4.3700 C.cat  87  ARG87       0.5346
     38  NH1        1.5430  -16.4440    5.4660 N.pl3  87  ARG87       0.1354
     39  NH2        2.9870  -15.9430    3.7440 N.pl3  87  ARG87       0.1354
     40  N         -9.4790  -14.3850    6.6940 N.3   100  PHE100     -0.1241
     41  CA        -8.4450  -15.4120    6.6100 C.3   100  PHE100      0.1605
     42  C         -9.1630  -16.7490    6.4840 C.2   100  PHE100      0.2264
     43  O         -9.7970  -17.2140    7.4340 O.2   100  PHE100     -0.2867
     44  CB        -7.5510  -15.4010    7.8610 C.3   100  PHE100      0.0534
     45  CG        -6.5870  -16.5640    7.9280 C.ar  100  PHE100     -0.0203
     46  CD1       -5.8240  -16.9190    6.8180 C.ar  100  PHE100     -0.0042
     47  CD2       -6.4450  -17.3010    9.1000 C.ar  100  PHE100     -0.0042
     48  CE1       -4.9390  -17.9910    6.8690 C.ar  100  PHE100     -0.0003
     49  CE2       -5.5590  -18.3790    9.1690 C.ar  100  PHE100     -0.0003
     50  CZ        -4.8060  -18.7240    8.0530 C.ar  100  PHE100     -0.0000
     51  N         -6.6140  -22.4630    8.4420 N.3   103  TRP103     -0.1241
     52  CA        -5.7380  -23.6160    8.3250 C.3   103  TRP103      0.1605
     53  C         -6.0040  -24.5650    9.4870 C.2   103  TRP103      0.2264
     54  O         -6.7080  -24.2250   10.4350 O.2   103  TRP103     -0.2867
     55  CB        -4.2680  -23.1900    8.3490 C.3   103  TRP103      0.0550
     56  CG        -3.7740  -22.7570    9.7050 C.ar  103  TRP103      0.0003
     57  CD1       -4.2450  -21.7230   10.4630 C.ar  103  TRP103      0.0946
     58  CD2       -2.6970  -23.3420   10.4480 C.ar  103  TRP103      0.0152
     59  NE1       -3.5230  -21.6220   11.6290 N.ar  103  TRP103     -0.2442
     60  CE2       -2.5670  -22.5970   11.6440 C.ar  103  TRP103      0.0810
     61  CE3       -1.8250  -24.4110   10.2130 C.ar  103  TRP103      0.0012
     62  CZ2       -1.6010  -22.9040   12.6100 C.ar  103  TRP103      0.0191
     63  CZ3       -0.8670  -24.7120   11.1780 C.ar  103  TRP103      0.0001
     64  CH2       -0.7620  -23.9550   12.3570 C.ar  103  TRP103      0.0015
     65  N          0.4820  -25.3650   17.8230 N.3   111  SER111     -0.1202
     66  CA         0.9510  -24.1400   17.2010 C.3   111  SER111      0.2020
     67  C          0.0730  -23.0050   17.6840 C.2   111  SER111      0.2619
     68  O         -0.5650  -23.1100   18.7280 O.2   111  SER111     -0.2717
     69  CB         0.8840  -24.2500   15.6710 C.3   111  SER111      0.2103
     70  OG         1.4870  -23.1240   15.0540 O.3   111  SER111     -0.2182
     71  N          0.0360  -21.9220   16.9230 N.am  112  THR112     -0.1938
     72  CA        -0.7710  -20.7830   17.3030 C.3   112  THR112      0.2028
     73  C         -1.4410  -20.1570   16.0950 C.2   112  THR112      0.2642
     74  O         -1.0710  -20.4290   14.9550 O.2   112  THR112     -0.2714
     75  CB         0.0810  -19.6980   17.9830 C.3   112  THR112      0.1808
     76  OG1        1.0650  -19.2160   17.0590 O.3   112  THR112     -0.2208
     77  CG2        0.7760  -20.2560   19.2140 C.3   112  THR112      0.0379
     78  N         -2.4390  -19.3290   16.3720 N.am  113  GLN113     -0.1963
     79  CA        -3.1680  -18.5970   15.3430 C.3   113  GLN113      0.1733
     80  C         -3.0060  -17.1360   15.7260 C.2   113  GLN113      0.2616
     81  O         -3.2670  -16.7630   16.8700 O.2   113  GLN113     -0.2715
     82  CB        -4.6510  -18.9750   15.3470 C.3   113  GLN113      0.0408
     83  CG        -5.5070  -18.1340   14.4230 C.3   113  GLN113      0.0908
     84  CD        -5.0160  -18.1550   12.9860 C.2   113  GLN113      0.2608
     85  OE1       -4.8320  -19.2230   12.3920 O.2   113  GLN113     -0.2717
     86  NE2       -4.8090  -16.9750   12.4170 N.am  113  GLN113     -0.0878
     87  N         -2.5550  -16.3220   14.7770 N.am  114  GLY114     -0.1955
     88  CA        -2.3600  -14.9080   15.0370 C.3   114  GLY114      0.1869
     89  C         -3.2720  -14.0520   14.1830 C.2   114  GLY114      0.2309
     90  O         -4.2330  -14.5490   13.5930 O.2   114  GLY114     -0.2863
@<TRIPOS>BOND
     1    39    37    1
     2    34    35    1
     3    34    33    1
     4    36    37    2
     5    36    35    1
     6    30    29    1
     7    30    31    1
     8    30    33    1
     9    37    38    1
    10    31    32    2
    11    42    41    1
    12    42    43    2
    13    41    40    1
    14    41    44    1
    15    46    48   ar
    16    46    45   ar
    17    48    50   ar
    18    44    45    1
    19    45    47   ar
    20    50    49   ar
    21    52    55    1
    22    52    51    1
    23    52    53    1
    24    55    56    1
    25    18    19    1
    26    18    15    1
    27    21    19   ar
    28    14    15    1
    29    47    49   ar
    30    19    20   ar
    31    15    16    1
    32    17    16    2
    33    53    54    2
    34    56    58   ar
    35    56    57   ar
    36    16    22   am
    37    61    58   ar
    38    61    63   ar
    39    24    25    2
    40    24    23    1
    41    58    60   ar
    42    57    59   ar
    43    22    23    1
    44    23    26    1
    45    63    64   ar
    46    59    60   ar
    47    60    62   ar
    48    26    28    1
    49    26    27    1
    50    64    62   ar
    51    85    84    2
    52    86    84   am
    53    84    83    1
    54    90    89    2
    55    89    88    1
    56    83    82    1
    57    87    88    1
    58    87    80   am
    59    74    73    2
    60    70    69    1
    61    79    82    1
    62    79    80    1
    63    79    78    1
    64     5     2    1
    65    69    66    1
    66    80    81    2
    67     2     1    1
    68     2     3    1
    69    73    78   am
    70    73    72    1
    71     4     3    2
    72     3     6   am
    73    71    72    1
    74    71    67   am
    75    76    75    1
    76    66    67    1
    77    66    65    1
    78    72    75    1
    79    67    68    2
    80    75    77    1
    81     6     7    1
    82    13    11   am
    83     7     8    1
    84     7    10    1
    85    12    11    2
    86    11    10    1
    87     8     9    2
