@<TRIPOS>MOLECULE
tmp/1zptC01.pdb
 194 190 0 0 0
SMALL
GASTEIGER

@<TRIPOS>ATOM
      1  N         31.3920  -16.5640   21.6250 N.3     7  GLU7       -0.1231
      2  CA        31.0740  -15.9300   22.8970 C.3     7  GLU7        0.1699
      3  C         29.5660  -15.7300   23.0040 C.2     7  GLU7        0.2592
      4  O         28.9210  -15.2660   22.0580 O.2     7  GLU7       -0.2718
      5  CB        31.7900  -14.5820   22.9990 C.3     7  GLU7        0.0402
      6  CG        31.5770  -13.8580   24.3210 C.3     7  GLU7        0.1161
      7  CD        32.4560  -12.6300   24.4400 C.2     7  GLU7        0.3649
      8  OE1       31.9090  -11.5260   24.6320 O.co2   7  GLU7       -0.2457
      9  OE2       33.6910  -12.7760   24.3370 O.co2   7  GLU7       -0.2457
     10  N         29.0100  -16.0920   24.1580 N.am    8  PHE8       -0.1962
     11  CA        27.5800  -15.9580   24.4190 C.3     8  PHE8        0.1771
     12  C         27.3670  -15.1710   25.7090 C.2     8  PHE8        0.2620
     13  O         28.3120  -14.9400   26.4520 O.2     8  PHE8       -0.2715
     14  CB        26.9370  -17.3350   24.5850 C.3     8  PHE8        0.0574
     15  CG        27.2030  -18.2730   23.4480 C.ar    8  PHE8       -0.0200
     16  CD1       28.2380  -19.1970   23.5200 C.ar    8  PHE8       -0.0042
     17  CD2       26.4180  -18.2280   22.3010 C.ar    8  PHE8       -0.0042
     18  CE1       28.4890  -20.0670   22.4660 C.ar    8  PHE8       -0.0003
     19  CE2       26.6590  -19.0910   21.2410 C.ar    8  PHE8       -0.0003
     20  CZ        27.6910  -20.0110   21.3170 C.ar    8  PHE8       -0.0000
     21  N         26.1330  -14.7460   25.9630 N.am    9  PHE9       -0.1960
     22  CA        25.8320  -14.0290   27.1980 C.3     9  PHE9        0.1756
     23  C         24.6480  -14.6990   27.8880 C.2     9  PHE9        0.2461
     24  O         23.8190  -15.3250   27.2360 O.2     9  PHE9       -0.2730
     25  CB        25.5760  -12.5280   26.9480 C.3     9  PHE9        0.0574
     26  CG        24.3330  -12.2150   26.1460 C.ar    9  PHE9       -0.0200
     27  CD1       23.0750  -12.2000   26.7500 C.ar    9  PHE9       -0.0042
     28  CD2       24.4310  -11.8750   24.7990 C.ar    9  PHE9       -0.0042
     29  CE1       21.9380  -11.8470   26.0290 C.ar    9  PHE9       -0.0003
     30  CE2       23.2950  -11.5180   24.0610 C.ar    9  PHE9       -0.0003
     31  CZ        22.0490  -11.5040   24.6760 C.ar    9  PHE9       -0.0000
     32  N         24.5890  -14.6190   29.2250 N.am   10  PRO10      -0.2727
     33  CA        23.4960  -15.2300   29.9900 C.3    10  PRO10       0.1402
     34  C         22.1420  -14.6520   29.6050 C.2    10  PRO10       0.2269
     35  O         21.9310  -13.4530   29.6920 O.2    10  PRO10      -0.2865
     36  CB        23.8640  -14.9140   31.4400 C.3    10  PRO10       0.0296
     37  CG        25.3750  -14.8400   31.4030 C.3    10  PRO10       0.0237
     38  CD        25.6150  -14.0610   30.1250 C.3    10  PRO10       0.0939
     39  N         29.9230  -14.4800   28.8800 N.3    38  THR38      -0.1203
     40  CA        30.1950  -13.2140   29.5530 C.3    38  THR38       0.1994
     41  C         29.5900  -13.0920   30.9420 C.2    38  THR38       0.2618
     42  O         28.7230  -13.8770   31.3420 O.2    38  THR38      -0.2717
     43  CB        29.7040  -12.0160   28.7170 C.3    38  THR38       0.1784
     44  OG1       28.2800  -12.0740   28.6000 O.3    38  THR38      -0.2211
     45  CG2       30.3320  -12.0410   27.3190 C.3    38  THR38       0.0376
     46  N         30.0570  -12.0770   31.6610 N.am   39  TYR39      -0.1961
     47  CA        29.6090  -11.8040   33.0170 C.3    39  TYR39       0.1771
     48  C         28.9980  -10.4090   33.1030 C.2    39  TYR39       0.2620
     49  O         29.5750   -9.4330   32.6160 O.2    39  TYR39      -0.2715
     50  CB        30.7930  -11.8950   33.9870 C.3    39  TYR39       0.0574
     51  CG        30.5200  -11.2690   35.3370 C.ar   39  TYR39      -0.0198
     52  CD1       29.7460  -11.9250   36.2930 C.ar   39  TYR39      -0.0009
     53  CD2       31.0260  -10.0040   35.6510 C.ar   39  TYR39      -0.0009
     54  CE1       29.4830  -11.3390   37.5360 C.ar   39  TYR39       0.0417
     55  CE2       30.7670   -9.4060   36.8840 C.ar   39  TYR39       0.0417
     56  CZ        29.9970  -10.0780   37.8200 C.ar   39  TYR39       0.1957
     57  OH        29.7360   -9.4810   39.0290 O.3    39  TYR39      -0.2866
     58  N         27.8320  -10.3290   33.7290 N.am   40  GLY40      -0.1940
     59  CA        27.1580   -9.0530   33.8950 C.3    40  GLY40       0.2014
     60  C         26.9210   -8.7950   35.3680 C.2    40  GLY40       0.2638
     61  O         26.0100   -9.3670   35.9650 O.2    40  GLY40      -0.2714
     62  N         27.7440   -7.9300   35.9550 N.am   41  ALA41      -0.1977
     63  CA        27.6470   -7.5960   37.3700 C.3    41  ALA41       0.1597
     64  C         26.2190   -7.3370   37.8360 C.2    41  ALA41       0.2287
     65  O         25.7740   -7.8960   38.8370 O.2    41  ALA41      -0.2864
     66  CB        28.5270   -6.3790   37.6810 C.3    41  ALA41       0.0319
     67  N         23.5360   -7.7330   35.7410 N.3    43  SER43      -0.1217
     68  CA        22.6910   -8.2910   34.6990 C.3    43  SER43       0.1889
     69  C         22.8070   -9.8090   34.6160 C.2    43  SER43       0.2288
     70  O         22.9020  -10.3710   33.5240 O.2    43  SER43      -0.2866
     71  CB        23.0690   -7.6740   33.3530 C.3    43  SER43       0.2089
     72  OG        24.4430   -7.8810   33.0820 O.3    43  SER43      -0.2183
     73  N         33.6400  -15.8530   31.7910 N.3    67  HIS67      -0.1241
     74  CA        34.3930  -14.6110   31.8750 C.3    67  HIS67       0.1621
     75  C         34.3070  -14.2920   33.3650 C.2    67  HIS67       0.2264
     76  O         33.2160  -14.2330   33.9260 O.2    67  HIS67      -0.2867
     77  CB        33.7460  -13.4920   31.0560 C.3    67  HIS67       0.0745
     78  CG        33.8400  -13.6960   29.5720 C.ar   67  HIS67       0.0817
     79  ND1       33.8380  -12.6500   28.6750 N.ar   67  HIS67      -0.2268
     80  CD2       33.9170  -14.8270   28.8310 C.ar   67  HIS67       0.1154
     81  CE1       33.9080  -13.1270   27.4440 C.ar   67  HIS67       0.1986
     82  NE2       33.9550  -14.4450   27.5100 N.ar   67  HIS67      -0.2212
     83  N         34.6790   -3.1590   34.3760 N.3    99  ASP99      -0.1239
     84  CA        34.7390   -1.6960   34.4610 C.3    99  ASP99       0.1674
     85  C         34.7290   -1.2360   35.9220 C.2    99  ASP99       0.2266
     86  O         34.2500   -1.9430   36.8040 O.2    99  ASP99      -0.2867
     87  CB        33.5610   -1.0370   33.7250 C.3    99  ASP99       0.1410
     88  CG        33.6220   -1.2200   32.2100 C.2    99  ASP99       0.3668
     89  OD1       34.7170   -1.1160   31.6180 O.co2  99  ASP99      -0.2456
     90  OD2       32.5530   -1.4560   31.6110 O.co2  99  ASP99      -0.2456
     91  N         43.3240   -4.6110   23.3390 N.3   123  TYR123     -0.1241
     92  CA        42.6430   -3.4940   22.6920 C.3   123  TYR123      0.1605
     93  C         43.4360   -2.8340   21.5610 C.2   123  TYR123      0.2264
     94  O         44.2870   -1.9620   21.7910 O.2   123  TYR123     -0.2867
     95  CB        42.2720   -2.4430   23.7450 C.3   123  TYR123      0.0534
     96  CG        41.5050   -3.0110   24.9210 C.ar  123  TYR123     -0.0201
     97  CD1       42.1740   -3.6120   25.9920 C.ar  123  TYR123     -0.0009
     98  CD2       40.1120   -2.9900   24.9430 C.ar  123  TYR123     -0.0009
     99  CE1       41.4760   -4.1780   27.0560 C.ar  123  TYR123      0.0417
    100  CE2       39.4000   -3.5600   26.0050 C.ar  123  TYR123      0.0417
    101  CZ        40.0930   -4.1500   27.0570 C.ar  123  TYR123      0.1957
    102  OH        39.4050   -4.6980   28.1170 O.3   123  TYR123     -0.2866
    103  N         39.1130   -6.6770   21.5420 N.3   154  GLN154     -0.1231
    104  CA        37.8110   -6.0440   21.5350 C.3   154  GLN154      0.1698
    105  C         37.5280   -6.0360   20.0310 C.2   154  GLN154      0.2592
    106  O         38.4610   -6.1340   19.2260 O.2   154  GLN154     -0.2718
    107  CB        37.9280   -4.6070   22.0460 C.3   154  GLN154      0.0381
    108  CG        36.6420   -3.7960   21.9360 C.3   154  GLN154      0.0905
    109  CD        35.4620   -4.4720   22.6220 C.2   154  GLN154      0.2608
    110  OE1       34.9430   -5.4940   22.1430 O.2   154  GLN154     -0.2717
    111  NE2       35.0300   -3.9080   23.7510 N.am  154  GLN154     -0.0878
    112  N         36.2660   -5.9400   19.6330 N.am  155  PHE155     -0.1976
    113  CA        35.9770   -5.9320   18.2070 C.3   155  PHE155      0.1639
    114  C         36.5190   -4.6680   17.5450 C.2   155  PHE155      0.2290
    115  O         36.8440   -3.6780   18.2200 O.2   155  PHE155     -0.2864
    116  CB        34.4720   -6.0820   17.9540 C.3   155  PHE155      0.0560
    117  CG        33.6420   -4.9310   18.4480 C.ar  155  PHE155     -0.0200
    118  CD1       33.4720   -3.7930   17.6670 C.ar  155  PHE155     -0.0042
    119  CD2       33.0150   -4.9920   19.6840 C.ar  155  PHE155     -0.0042
    120  CE1       32.6860   -2.7280   18.1060 C.ar  155  PHE155     -0.0003
    121  CE2       32.2240   -3.9320   20.1400 C.ar  155  PHE155     -0.0003
    122  CZ        32.0580   -2.7970   19.3480 C.ar  155  PHE155     -0.0000
    123  N         32.7960   -9.0910   15.4550 N.3   183  LEU183     -0.1245
    124  CA        31.4020   -8.7790   15.7370 C.3   183  LEU183      0.1561
    125  C         30.5990   -8.6900   14.4410 C.2   183  LEU183      0.2260
    126  O         30.6950   -7.6930   13.7120 O.2   183  LEU183     -0.2867
    127  CB        31.2710   -7.4400   16.4840 C.3   183  LEU183      0.0270
    128  CG        29.8220   -6.9570   16.6570 C.3   183  LEU183      0.0019
    129  CD1       29.0730   -7.9220   17.5660 C.3   183  LEU183      0.0001
    130  CD2       29.7880   -5.5500   17.2370 C.3   183  LEU183      0.0001
    131  N         22.8230   -0.9250   17.7820 N.3   190  GLN190     -0.1245
    132  CA        23.4280   -1.5780   18.9370 C.3   190  GLN190      0.1566
    133  C         24.9490   -1.6060   18.8120 C.2   190  GLN190      0.2260
    134  O         25.6620   -1.3630   19.7880 O.2   190  GLN190     -0.2867
    135  CB        22.8900   -3.0070   19.0830 C.3   190  GLN190      0.0367
    136  CG        23.4720   -3.7770   20.2660 C.3   190  GLN190      0.0905
    137  CD        23.0680   -5.2440   20.2610 C.2   190  GLN190      0.2608
    138  OE1       23.1970   -5.9260   19.2490 O.2   190  GLN190     -0.2717
    139  NE2       22.5870   -5.7360   21.3980 N.am  190  GLN190     -0.0878
    140  N         26.4640    1.7550   19.5620 N.3   193  LYS193     -0.1231
    141  CA        26.4280    2.0390   20.9930 C.3   193  LYS193      0.1693
    142  C         27.6150    1.3480   21.6610 C.2   193  LYS193      0.2592
    143  O         28.3020    1.9380   22.4970 O.2   193  LYS193     -0.2718
    144  CB        25.1200    1.5410   21.6000 C.3   193  LYS193      0.0285
    145  CG        25.0970    1.8320   23.1130 C.3   193  LYS193      0.0035
    146  CD        23.6510    1.7830   23.6110 C.3   193  LYS193      0.0206
    147  CE        23.5270    1.3430   25.0520 C.3   193  LYS193      0.1093
    148  NZ        24.0240   -0.0750   25.1740 N.3   193  LYS193     -0.1314
    149  N         27.8450    0.0900   21.2900 N.am  194  PHE194     -0.1976
    150  CA        28.9650   -0.6770   21.8280 C.3   194  PHE194      0.1639
    151  C         30.2680    0.0460   21.4860 C.2   194  PHE194      0.2290
    152  O         31.1140    0.2780   22.3500 O.2   194  PHE194     -0.2864
    153  CB        29.0100   -2.0820   21.2030 C.3   194  PHE194      0.0560
    154  CG        27.9420   -3.0300   21.7030 C.ar  194  PHE194     -0.0200
    155  CD1       27.7240   -4.2420   21.0480 C.ar  194  PHE194     -0.0042
    156  CD2       27.1730   -2.7310   22.8240 C.ar  194  PHE194     -0.0042
    157  CE1       26.7570   -5.1400   21.5000 C.ar  194  PHE194     -0.0003
    158  CE2       26.2050   -3.6220   23.2830 C.ar  194  PHE194     -0.0003
    159  CZ        25.9970   -4.8300   22.6180 C.ar  194  PHE194     -0.0000
    160  N         31.1600    3.3940   23.1470 N.3   197  MET197     -0.1230
    161  CA        31.5560    3.2400   24.5430 C.3   197  MET197      0.1702
    162  C         32.9720    2.6870   24.6740 C.2   197  MET197      0.2593
    163  O         33.5520    2.7150   25.7600 O.2   197  MET197     -0.2718
    164  CB        30.6130    2.2820   25.2740 C.3   197  MET197      0.0401
    165  CG        29.1530    2.6780   25.2920 C.3   197  MET197      0.0596
    166  SD        28.2060    1.5700   26.3710 S.3   197  MET197     -0.1393
    167  CE        28.1810    0.0540   25.3850 C.3   197  MET197      0.0692
    168  N         33.5310    2.1880   23.5740 N.am  198  THR198     -0.1953
    169  CA        34.8630    1.5930   23.6210 C.3   198  THR198      0.1897
    170  C         35.9420    2.1610   22.7040 C.2   198  THR198      0.2313
    171  O         36.9600    1.5050   22.4740 O.2   198  THR198     -0.2863
    172  CB        34.7790    0.0730   23.3730 C.3   198  THR198      0.1794
    173  OG1       34.0690   -0.1780   22.1530 O.3   198  THR198     -0.2208
    174  CG2       34.0570   -0.6110   24.5170 C.3   198  THR198      0.0378
    175  N         31.6690  -12.7480   18.4390 N.3   246  TYR246     -0.1241
    176  CA        30.7240  -12.1450   19.3680 C.3   246  TYR246      0.1605
    177  C         29.3480  -12.4150   18.7480 C.2   246  TYR246      0.2264
    178  O         28.8080  -11.5980   17.9920 O.2   246  TYR246     -0.2867
    179  CB        30.9950  -10.6440   19.4930 C.3   246  TYR246      0.0534
    180  CG        32.3420  -10.3280   20.1180 C.ar  246  TYR246     -0.0201
    181  CD1       32.6650  -10.8000   21.3880 C.ar  246  TYR246     -0.0009
    182  CD2       33.2880   -9.5500   19.4420 C.ar  246  TYR246     -0.0009
    183  CE1       33.8950  -10.5100   21.9820 C.ar  246  TYR246      0.0417
    184  CE2       34.5230   -9.2510   20.0200 C.ar  246  TYR246      0.0417
    185  CZ        34.8200   -9.7330   21.2930 C.ar  246  TYR246      0.1957
    186  OH        36.0240   -9.4250   21.8830 O.3   246  TYR246     -0.2866
    187  N         26.3820  -12.7090   20.2270 N.3   248  LEU248     -0.1245
    188  CA        25.2380  -12.0370   20.8300 C.3   248  LEU248      0.1561
    189  C         24.0850  -13.0440   20.8890 C.2   248  LEU248      0.2260
    190  O         22.9100  -12.6850   20.8000 O.2   248  LEU248     -0.2867
    191  CB        24.8410  -10.7910   20.0300 C.3   248  LEU248      0.0270
    192  CG        25.9140   -9.7000   19.9650 C.3   248  LEU248      0.0019
    193  CD1       25.3320   -8.4170   19.3640 C.3   248  LEU248      0.0001
    194  CD2       26.4450   -9.4450   21.3590 C.3   248  LEU248      0.0001
@<TRIPOS>BOND
     1   126   125    2
     2   125   124    1
     3   123   124    1
     4   124   127    1
     5   127   128    1
     6   128   130    1
     7   128   129    1
     8   114   113    1
     9   114   115    2
    10   118   120   ar
    11   118   117   ar
    12   131   132    1
    13   116   113    1
    14   116   117    1
    15   178   177    2
    16   120   122   ar
    17   113   112    1
    18   175   176    1
    19   117   119   ar
    20   177   176    1
    21   133   132    1
    22   133   134    2
    23   132   135    1
    24   135   136    1
    25   106   105    2
    26   138   137    2
    27   122   121   ar
    28   193   192    1
    29   176   179    1
    30   182   184   ar
    31   182   180   ar
    32   179   180    1
    33   140   141    1
    34   112   105   am
    35   119   121   ar
    36   192   191    1
    37   192   194    1
    38   184   185   ar
    39   191   188    1
    40   105   104    1
    41   180   181   ar
    42   187   188    1
    43   137   136    1
    44   137   139   am
    45   190   189    2
    46   188   189    1
    47   141   144    1
    48   141   142    1
    49   155   157   ar
    50   155   154   ar
    51   153   154    1
    52   153   150    1
    53    19    20   ar
    54    19    17   ar
    55   149   142   am
    56   149   150    1
    57   185   186    1
    58   185   183   ar
    59    20    18   ar
    60   181   183   ar
    61   151   150    1
    62   151   152    2
    63   157   159   ar
    64   104   103    1
    65   104   107    1
    66    93    94    2
    67    93    92    1
    68   144   145    1
    69     1     2    1
    70   142   143    2
    71   154   156   ar
    72   108   107    1
    73   108   109    1
    74     4     3    2
    75   110   109    2
    76   173   172    1
    77    17    15   ar
    78    18    16   ar
    79   171   170    2
    80   159   158   ar
    81   109   111   am
    82    92    91    1
    83    92    95    1
    84   170   169    1
    85   156   158   ar
    86     2     5    1
    87     2     3    1
    88     5     6    1
    89     3    10   am
    90   145   146    1
    91   160   161    1
    92   172   169    1
    93   172   174    1
    94    15    16   ar
    95    15    14    1
    96   168   169    1
    97   168   162   am
    98   146   147    1
    99    95    96    1
   100    30    31   ar
   101    30    28   ar
   102    10    11    1
   103     6     7    1
   104     9     7   ar
   105    11    14    1
   106    11    12    1
   107     7     8   ar
   108   161   162    1
   109   161   164    1
   110   162   163    2
   111    31    29   ar
   112    28    26   ar
   113    96    98   ar
   114    96    97   ar
   115    98   100   ar
   116   147   148    1
   117   164   165    1
   118   165   166    1
   119   167   166    1
   120    12    21   am
   121    12    13    2
   122    21    22    1
   123    97    99   ar
   124   100   101   ar
   125    29    27   ar
   126    26    27   ar
   127    26    25    1
   128    25    22    1
   129    99   101   ar
   130   101   102    1
   131    22    23    1
   132    24    23    2
   133    45    43    1
   134    81    82   ar
   135    81    79   ar
   136    82    80   ar
   137    23    32   am
   138    44    43    1
   139    79    78   ar
   140    43    40    1
   141    80    78   ar
   142    39    40    1
   143    32    33    1
   144    32    38    1
   145    40    41    1
   146    78    77    1
   147    34    35    2
   148    34    33    1
   149    33    36    1
   150    38    37    1
   151    41    42    2
   152    41    46   am
   153    77    74    1
   154    37    36    1
   155    90    88   ar
   156    89    88   ar
   157    46    47    1
   158    73    74    1
   159    74    75    1
   160    88    87    1
   161    49    48    2
   162    47    48    1
   163    47    50    1
   164    72    71    1
   165    48    58   am
   166    71    68    1
   167    75    76    2
   168    70    69    2
   169    87    84    1
   170    58    59    1
   171    59    60    1
   172    50    51    1
   173    83    84    1
   174    84    85    1
   175    69    68    1
   176    68    67    1
   177    51    53   ar
   178    51    52   ar
   179    60    62   am
   180    60    61    2
   181    53    55   ar
   182    85    86    2
   183    62    63    1
   184    52    54   ar
   185    55    56   ar
   186    63    66    1
   187    63    64    1
   188    54    56   ar
   189    56    57    1
   190    64    65    2
