@<TRIPOS>MOLECULE
tmp/1zpuC07.pdb
 106 105 0 0 0
SMALL
GASTEIGER

@<TRIPOS>ATOM
      1  N         43.6650  115.8500   95.0840 N.3   204  TRP204     -0.1241
      2  CA        43.7740  115.2560   93.7440 C.3   204  TRP204      0.1605
      3  C         45.1030  114.5480   93.5010 C.2   204  TRP204      0.2264
      4  O         46.0960  114.8220   94.1790 O.2   204  TRP204     -0.2867
      5  CB        43.5240  116.2880   92.6380 C.3   204  TRP204      0.0550
      6  CG        44.6120  117.2970   92.3920 C.ar  204  TRP204      0.0003
      7  CD1       45.5890  117.2310   91.4430 C.ar  204  TRP204      0.0946
      8  CD2       44.7940  118.5510   93.0670 C.ar  204  TRP204      0.0152
      9  NE1       46.3820  118.3550   91.4920 N.ar  204  TRP204     -0.2442
     10  CE2       45.9110  119.1840   92.4790 C.ar  204  TRP204      0.0810
     11  CE3       44.1260  119.2010   94.1190 C.ar  204  TRP204      0.0012
     12  CZ2       46.3770  120.4350   92.9140 C.ar  204  TRP204      0.0191
     13  CZ3       44.5890  120.4440   94.5420 C.ar  204  TRP204      0.0001
     14  CH2       45.7030  121.0410   93.9420 C.ar  204  TRP204      0.0015
     15  N         45.4650  120.7410   99.1510 N.3   255  LYS255     -0.1245
     16  CA        45.5010  122.2010   99.1180 C.3   255  LYS255      0.1561
     17  C         44.5070  122.8110  100.1200 C.2   255  LYS255      0.2260
     18  O         43.3970  122.3200  100.2930 O.2   255  LYS255     -0.2867
     19  CB        45.2080  122.6790   97.6910 C.3   255  LYS255      0.0271
     20  CG        45.5780  124.1050   97.4040 C.3   255  LYS255      0.0035
     21  CD        44.9270  124.5550   96.1170 C.3   255  LYS255      0.0206
     22  CE        45.4590  125.8950   95.6380 C.3   255  LYS255      0.1093
     23  NZ        45.6500  126.8690   96.7390 N.3   255  LYS255     -0.1314
     24  N         52.7410  127.4480  103.4050 N.3   269  GLN269     -0.1231
     25  CA        52.5890  126.5780  102.2530 C.3   269  GLN269      0.1698
     26  C         51.1240  126.1750  102.0890 C.2   269  GLN269      0.2592
     27  O         50.6240  125.3130  102.8140 O.2   269  GLN269     -0.2718
     28  CB        53.4950  125.3560  102.3660 C.3   269  GLN269      0.0381
     29  CG        54.9500  125.6590  102.0450 C.3   269  GLN269      0.0905
     30  CD        55.1630  126.1590  100.6030 C.2   269  GLN269      0.2608
     31  OE1       54.6720  125.5530   99.6330 O.2   269  GLN269     -0.2717
     32  NE2       55.9070  127.2600  100.4630 N.am  269  GLN269     -0.0878
     33  N         50.4490  126.8190  101.1400 N.am  270  LEU270     -0.1966
     34  CA        49.0320  126.6000  100.9140 C.3   270  LEU270      0.1728
     35  C         48.7580  125.2460  100.2900 C.2   270  LEU270      0.2616
     36  O         47.7370  124.6200  100.5610 O.2   270  LEU270     -0.2715
     37  CB        48.4600  127.7170  100.0450 C.3   270  LEU270      0.0311
     38  CG        48.2610  129.0600  100.7430 C.3   270  LEU270      0.0022
     39  CD1       47.8140  130.1200   99.7460 C.3   270  LEU270      0.0001
     40  CD2       47.2520  128.9030  101.8620 C.3   270  LEU270      0.0001
     41  N         49.6730  124.7900   99.4500 N.am  271  ASN271     -0.1972
     42  CA        49.5170  123.4740   98.8710 C.3   271  ASN271      0.1688
     43  C         50.6880  122.5460   99.1380 C.2   271  ASN271      0.2292
     44  O         51.8300  122.9670   99.1340 O.2   271  ASN271     -0.2864
     45  CB        49.0820  123.5320   97.3940 C.3   271  ASN271      0.1181
     46  CG        49.6870  124.6880   96.6250 C.2   271  ASN271      0.2629
     47  OD1       50.8740  124.6500   96.3220 O.2   271  ASN271     -0.2716
     48  ND2       48.8610  125.7010   96.2550 N.am  271  ASN271     -0.0877
     49  N         55.3890  119.5790   92.5480 N.3   287  GLN287     -0.1231
     50  CA        53.9900  119.9880   92.6830 C.3   287  GLN287      0.1698
     51  C         53.2340  119.9050   91.3610 C.2   287  GLN287      0.2592
     52  O         53.7470  120.3110   90.3210 O.2   287  GLN287     -0.2718
     53  CB        53.9120  121.4130   93.2220 C.3   287  GLN287      0.0381
     54  CG        52.5130  121.9820   93.2260 C.3   287  GLN287      0.0905
     55  CD        52.4360  123.4040   93.7280 C.2   287  GLN287      0.2608
     56  OE1       53.4510  124.0250   94.0530 O.2   287  GLN287     -0.2717
     57  NE2       51.2140  123.9390   93.7880 N.am  287  GLN287     -0.0878
     58  N         52.0220  119.3670   91.4030 N.am  288  ASN288     -0.1960
     59  CA        51.1500  119.3700   90.2350 C.3   288  ASN288      0.1819
     60  C         50.2670  120.6120   90.2340 C.2   288  ASN288      0.2621
     61  O         49.3570  120.7560   91.0580 O.2   288  ASN288     -0.2715
     62  CB        50.3000  118.0910   90.1660 C.3   288  ASN288      0.1195
     63  CG        49.4700  117.9970   88.8890 C.2   288  ASN288      0.2630
     64  OD1       48.2440  117.8650   88.9330 O.2   288  ASN288     -0.2716
     65  ND2       50.1390  118.0550   87.7500 N.am  288  ASN288     -0.0877
     66  N         50.5690  121.5270   89.3210 N.am  289  TYR289     -0.1960
     67  CA        49.8120  122.7600   89.2030 C.3   289  TYR289      0.1771
     68  C         48.4930  122.4510   88.5470 C.2   289  TYR289      0.2619
     69  O         48.4330  121.7510   87.5380 O.2   289  TYR289     -0.2715
     70  CB        50.5720  123.8110   88.3880 C.3   289  TYR289      0.0574
     71  CG        51.7680  124.3920   89.1050 C.ar  289  TYR289     -0.0198
     72  CD1       53.0430  124.3700   88.5170 C.ar  289  TYR289     -0.0009
     73  CD2       51.6320  124.9630   90.3720 C.ar  289  TYR289     -0.0009
     74  CE1       54.1530  124.9050   89.1810 C.ar  289  TYR289      0.0417
     75  CE2       52.7230  125.4970   91.0400 C.ar  289  TYR289      0.0417
     76  CZ        53.9800  125.4620   90.4480 C.ar  289  TYR289      0.1957
     77  OH        55.0570  125.9930   91.1290 O.3   289  TYR289     -0.2866
     78  N         47.4330  122.9830   89.1290 N.am  290  VAL290     -0.1963
     79  CA        46.1050  122.7660   88.6030 C.3   290  VAL290      0.1727
     80  C         45.5450  124.0840   88.0660 C.2   290  VAL290      0.2616
     81  O         45.8580  125.1620   88.5780 O.2   290  VAL290     -0.2715
     82  CB        45.2020  122.0950   89.6650 C.3   290  VAL290      0.0290
     83  CG1       44.3190  123.1220   90.4000 C.3   290  VAL290      0.0023
     84  CG2       44.3760  121.0050   89.0150 C.3   290  VAL290      0.0023
     85  N         44.7370  123.9940   87.0180 N.am  291  ASP291     -0.1957
     86  CA        44.2440  125.1880   86.3520 C.3   291  ASP291      0.1840
     87  C         43.0650  125.8480   87.0540 C.2   291  ASP291      0.2623
     88  O         42.8650  127.0530   86.9180 O.2   291  ASP291     -0.2715
     89  CB        43.8730  124.8850   84.9100 C.3   291  ASP291      0.1450
     90  CG        43.9720  126.1070   84.0300 C.2   291  ASP291      0.3671
     91  OD1       45.0310  126.7820   84.0800 O.co2 291  ASP291     -0.2456
     92  OD2       42.9990  126.3970   83.2910 O.co2 291  ASP291     -0.2456
     93  N         42.2900  125.0570   87.7940 N.am  292  SER292     -0.1936
     94  CA        41.1240  125.5650   88.5060 C.3   292  SER292      0.2055
     95  C         40.7780  124.7160   89.7330 C.2   292  SER292      0.2642
     96  O         40.8680  123.4890   89.6940 O.2   292  SER292     -0.2714
     97  CB        39.9330  125.6170   87.5590 C.3   292  SER292      0.2130
     98  OG        38.7340  125.7910   88.2810 O.3   292  SER292     -0.2179
     99  N         40.3730  125.3700   90.8190 N.am  293  ILE293     -0.1977
    100  CA        39.8960  124.6460   91.9980 C.3   293  ILE293      0.1596
    101  C         38.3750  124.7890   92.1230 C.2   293  ILE293      0.2287
    102  O         37.8020  124.7160   93.2220 O.2   293  ILE293     -0.2864
    103  CB        40.6150  125.0850   93.2850 C.3   293  ILE293      0.0276
    104  CG1       40.5050  126.5970   93.4740 C.3   293  ILE293      0.0022
    105  CG2       42.0700  124.6330   93.2520 C.3   293  ILE293      0.0022
    106  CD1       40.4790  127.0290   94.9320 C.3   293  ILE293      0.0001
@<TRIPOS>BOND
     1    92    90   ar
     2    90    91   ar
     3    90    89    1
     4    89    86    1
     5    86    85    1
     6    86    87    1
     7    88    87    2
     8    85    80   am
     9    87    93   am
    10    69    68    2
    11    97    98    1
    12    97    94    1
    13    65    63   am
    14    93    94    1
    15    80    81    2
    16    80    79    1
    17    70    71    1
    18    70    67    1
    19    94    95    1
    20    72    71   ar
    21    72    74   ar
    22    68    78   am
    23    68    67    1
    24    79    78    1
    25    79    82    1
    26    63    64    2
    27    63    62    1
    28    84    82    1
    29    71    73   ar
    30    74    76   ar
    31    67    66    1
    32    66    60   am
    33    82    83    1
    34    96    95    2
    35    95    99   am
    36    62    59    1
    37    60    59    1
    38    60    61    2
    39    59    58    1
    40    52    51    2
    41    73    75   ar
    42    76    75   ar
    43    76    77    1
    44    99   100    1
    45    51    58   am
    46    51    50    1
    47     7     9   ar
    48     7     6   ar
    49     9    10   ar
    50   100   101    1
    51   100   103    1
    52   101   102    2
    53     6     5    1
    54     6     8   ar
    55    10    12   ar
    56    10     8   ar
    57    49    50    1
    58     5     2    1
    59    50    53    1
    60    12    14   ar
    61     8    11   ar
    62    53    54    1
    63    54    55    1
    64   105   103    1
    65   103   104    1
    66   104   106    1
    67     3     2    1
    68     3     4    2
    69    55    57   am
    70    55    56    2
    71     2     1    1
    72    14    13   ar
    73    11    13   ar
    74    22    21    1
    75    22    23    1
    76    21    20    1
    77    48    46   am
    78    47    46    2
    79    46    45    1
    80    45    42    1
    81    20    19    1
    82    19    16    1
    83    42    43    1
    84    42    41    1
    85    16    15    1
    86    16    17    1
    87    44    43    2
    88    41    35   am
    89    31    30    2
    90    39    38    1
    91    37    38    1
    92    37    34    1
    93    17    18    2
    94    35    36    2
    95    35    34    1
    96    32    30   am
    97    30    29    1
    98    38    40    1
    99    34    33    1
   100    33    26   am
   101    29    28    1
   102    26    25    1
   103    26    27    2
   104    25    28    1
   105    25    24    1
