@<TRIPOS>MOLECULE
tmp/1zpuB04.pdb
 110 106 0 0 0
SMALL
GASTEIGER

@<TRIPOS>ATOM
      1  N         41.6760   88.4870   62.4110 N.3    15  ASN15      -0.1225
      2  CA        40.5890   88.1480   61.5160 C.3    15  ASN15       0.1785
      3  C         41.1560   87.6280   60.2100 C.2    15  ASN15       0.2597
      4  O         41.2690   88.3650   59.2320 O.2    15  ASN15      -0.2718
      5  CB        39.6820   89.3450   61.2740 C.3    15  ASN15       0.1169
      6  CG        38.3640   88.9510   60.6610 C.2    15  ASN15       0.2627
      7  OD1       38.2480   87.9220   59.9940 O.2    15  ASN15      -0.2716
      8  ND2       37.3540   89.7710   60.8830 N.am   15  ASN15      -0.0877
      9  N         41.5240   86.3530   60.2170 N.am   16  VAL16      -0.1966
     10  CA        42.2030   85.7060   59.0960 C.3    16  VAL16       0.1727
     11  C         41.2840   85.6490   57.8960 C.2    16  VAL16       0.2616
     12  O         41.6250   86.0710   56.8100 O.2    16  VAL16      -0.2715
     13  CB        42.5820   84.2460   59.4820 C.3    16  VAL16       0.0290
     14  CG1       43.1450   83.4850   58.2950 C.3    16  VAL16       0.0023
     15  CG2       43.5530   84.2390   60.6430 C.3    16  VAL16       0.0023
     16  N         40.1130   85.0930   58.1550 N.am   17  ASP17      -0.1957
     17  CA        39.0060   84.8920   57.2460 C.3    17  ASP17       0.1840
     18  C         38.6100   86.1410   56.4850 C.2    17  ASP17       0.2623
     19  O         38.4110   86.1190   55.2690 O.2    17  ASP17      -0.2715
     20  CB        37.8140   84.5250   58.1320 C.3    17  ASP17       0.1450
     21  CG        37.1020   83.3310   57.6470 C.2    17  ASP17       0.3671
     22  OD1       37.3640   82.9190   56.4970 O.co2  17  ASP17      -0.2456
     23  OD2       36.2920   82.7910   58.4180 O.co2  17  ASP17      -0.2456
     24  N         38.4760   87.2260   57.2380 N.am   18  GLY18      -0.1940
     25  CA        37.7940   88.3990   56.7700 C.3    18  GLY18       0.2014
     26  C         36.4410   88.5000   57.4420 C.2    18  GLY18       0.2638
     27  O         35.7600   89.5160   57.3110 O.2    18  GLY18      -0.2714
     28  N         36.0290   87.4600   58.1620 N.am   19  LEU19      -0.1977
     29  CA        34.7120   87.5190   58.7970 C.3    19  LEU19       0.1596
     30  C         34.5390   87.0170   60.2280 C.2    19  LEU19       0.2287
     31  O         33.4110   86.8340   60.6780 O.2    19  LEU19      -0.2864
     32  CB        33.6150   86.9680   57.8840 C.3    19  LEU19       0.0297
     33  CG        33.7710   85.7230   57.0430 C.3    19  LEU19       0.0022
     34  CD1       32.3630   85.3380   56.7270 C.3    19  LEU19       0.0001
     35  CD2       34.5540   86.0200   55.7640 C.3    19  LEU19       0.0001
     36  N         36.0640   78.8990   62.5040 N.3   144  HIS144     -0.1241
     37  CA        35.7370   80.0600   63.3260 C.3   144  HIS144      0.1621
     38  C         35.8260   79.7730   64.8050 C.2   144  HIS144      0.2264
     39  O         35.8140   80.6890   65.6200 O.2   144  HIS144     -0.2867
     40  CB        34.3490   80.5690   62.9900 C.3   144  HIS144      0.0745
     41  CG        34.3030   81.3590   61.7280 C.ar  144  HIS144      0.0817
     42  ND1       33.2720   82.2230   61.4270 N.ar  144  HIS144     -0.2268
     43  CD2       35.1740   81.4300   60.6960 C.ar  144  HIS144      0.1154
     44  CE1       33.5060   82.7840   60.2540 C.ar  144  HIS144      0.1986
     45  NE2       34.6490   82.3130   59.7870 N.ar  144  HIS144     -0.2212
     46  N         34.8020   76.9050   57.8580 N.3   168  GLN168     -0.1231
     47  CA        33.9910   78.0170   57.4110 C.3   168  GLN168      0.1698
     48  C         34.4120   78.6050   56.0590 C.2   168  GLN168      0.2592
     49  O         33.5760   79.1630   55.3460 O.2   168  GLN168     -0.2718
     50  CB        33.9450   79.0980   58.4850 C.3   168  GLN168      0.0381
     51  CG        32.9100   78.8620   59.5580 C.3   168  GLN168      0.0905
     52  CD        33.1180   77.5570   60.2940 C.2   168  GLN168      0.2608
     53  OE1       34.0280   77.4230   61.1210 O.2   168  GLN168     -0.2717
     54  NE2       32.2690   76.5780   59.9960 N.am  168  GLN168     -0.0878
     55  N         35.6920   78.4720   55.7090 N.am  169  ASN169     -0.1974
     56  CA        36.2240   79.0170   54.4610 C.3   169  ASN169      0.1688
     57  C         37.5590   78.4120   54.0650 C.2   169  ASN169      0.2292
     58  O         38.2800   77.8790   54.9150 O.2   169  ASN169     -0.2864
     59  CB        36.4310   80.5250   54.5910 C.3   169  ASN169      0.1181
     60  CG        35.2350   81.3270   54.1300 C.2   169  ASN169      0.2629
     61  OD1       34.7420   81.1600   53.0010 O.2   169  ASN169     -0.2716
     62  ND2       34.7650   82.2250   54.9980 N.am  169  ASN169     -0.0877
     63  N         44.8060   84.6710   54.3670 N.3   175  THR175     -0.1203
     64  CA        43.6580   85.5450   54.0860 C.3   175  THR175      0.1994
     65  C         42.8030   84.9250   53.0250 C.2   175  THR175      0.2618
     66  O         42.9790   83.7600   52.6790 O.2   175  THR175     -0.2717
     67  CB        44.0400   86.9270   53.5510 C.3   175  THR175      0.1784
     68  OG1       45.2750   86.8250   52.8310 O.3   175  THR175     -0.2211
     69  CG2       44.1230   87.9620   54.6940 C.3   175  THR175      0.0376
     70  N         41.8770   85.7340   52.5210 N.am  176  MET176     -0.1965
     71  CA        41.0500   85.4010   51.3820 C.3   176  MET176      0.1736
     72  C         41.2330   86.4580   50.3120 C.2   176  MET176      0.2616
     73  O         41.7400   87.5450   50.5780 O.2   176  MET176     -0.2715
     74  CB        39.5820   85.3470   51.7910 C.3   176  MET176      0.0427
     75  CG        39.2020   84.0910   52.5490 C.3   176  MET176      0.0599
     76  SD        37.4340   83.7860   52.4220 S.3   176  MET176     -0.1393
     77  CE        37.2530   83.1150   50.7520 C.3   176  MET176      0.0692
     78  N         40.7900   86.1290   49.1030 N.am  177  ASN177     -0.1972
     79  CA        40.9180   87.0090   47.9340 C.3   177  ASN177      0.1688
     80  C         42.2410   87.7890   47.8830 C.2   177  ASN177      0.2292
     81  O         42.2750   89.0140   48.0090 O.2   177  ASN177     -0.2864
     82  CB        39.6420   87.8560   47.6800 C.3   177  ASN177      0.1181
     83  CG        38.9230   88.2510   48.9520 C.2   177  ASN177      0.2629
     84  OD1       39.4040   89.1050   49.6810 O.2   177  ASN177     -0.2716
     85  ND2       37.7580   87.6520   49.2110 N.am  177  ASN177     -0.0877
     86  N         25.4810   77.8590   52.9430 N.3   267  ASP267     -0.1225
     87  CA        26.1050   79.1720   52.7980 C.3   267  ASP267      0.1805
     88  C         27.6210   79.0960   52.6090 C.2   267  ASP267      0.2598
     89  O         28.2660   80.1090   52.3290 O.2   267  ASP267     -0.2718
     90  CB        25.7590   80.0670   53.9880 C.3   267  ASP267      0.1424
     91  CG        26.5350   79.7050   55.2370 C.2   267  ASP267      0.3668
     92  OD1       26.9550   80.6340   55.9640 O.co2 267  ASP267     -0.2456
     93  OD2       26.7390   78.4960   55.4920 O.co2 267  ASP267     -0.2456
     94  N         28.1870   77.9010   52.7710 N.am  268  LEU268     -0.1966
     95  CA        29.6280   77.7160   52.6710 C.3   268  LEU268      0.1728
     96  C         30.1210   77.9460   51.2430 C.2   268  LEU268      0.2616
     97  O         29.7140   77.2350   50.3140 O.2   268  LEU268     -0.2715
     98  CB        30.0210   76.3160   53.1610 C.3   268  LEU268      0.0311
     99  CG        31.4740   75.8840   52.9670 C.3   268  LEU268      0.0022
    100  CD1       32.4130   76.7480   53.7780 C.3   268  LEU268      0.0001
    101  CD2       31.6250   74.4470   53.3520 C.3   268  LEU268      0.0001
    102  N         30.9900   78.9420   51.0770 N.am  269  GLN269     -0.1977
    103  CA        31.6550   79.1600   49.7970 C.3   269  GLN269      0.1601
    104  C         32.6010   77.9970   49.4860 C.2   269  GLN269      0.2287
    105  O         33.6900   77.8930   50.0520 O.2   269  GLN269     -0.2864
    106  CB        32.4090   80.4950   49.7670 C.3   269  GLN269      0.0394
    107  CG        31.5250   81.7450   49.6100 C.3   269  GLN269      0.0908
    108  CD        30.6930   81.7740   48.3060 C.2   269  GLN269      0.2608
    109  OE1       31.2370   81.6710   47.1910 O.2   269  GLN269     -0.2717
    110  NE2       29.3690   81.9270   48.4520 N.am  269  GLN269     -0.0878
@<TRIPOS>BOND
     1   109   108    2
     2    82    79    1
     3    82    83    1
     4    80    79    1
     5    80    81    2
     6    79    78    1
     7   108   110   am
     8   108   107    1
     9    83    85   am
    10    83    84    2
    11    78    72   am
    12   104   103    1
    13   104   105    2
    14   107   106    1
    15   106   103    1
    16   103   102    1
    17    72    73    2
    18    72    71    1
    19    97    96    2
    20    77    76    1
    21   102    96   am
    22    96    95    1
    23    71    74    1
    24    71    70    1
    25    74    75    1
    26    89    88    2
    27    76    75    1
    28    70    65   am
    29    88    94   am
    30    88    87    1
    31    95    94    1
    32    95    98    1
    33    66    65    2
    34    87    86    1
    35    87    90    1
    36    68    67    1
    37    99    98    1
    38    99   101    1
    39    99   100    1
    40    61    60    2
    41    65    64    1
    42    67    64    1
    43    67    69    1
    44    90    91    1
    45    57    56    1
    46    57    58    2
    47    64    63    1
    48    60    59    1
    49    60    62   am
    50    56    59    1
    51    56    55    1
    52    91    93   ar
    53    91    92   ar
    54    19    18    2
    55    49    48    2
    56    55    48   am
    57    35    33    1
    58    48    47    1
    59    18    24   am
    60    18    17    1
    61    22    21   ar
    62    34    33    1
    63    25    24    1
    64    25    26    1
    65    12    11    2
    66    33    32    1
    67    17    20    1
    68    17    16    1
    69    27    26    2
    70    47    46    1
    71    47    50    1
    72    26    28   am
    73    21    20    1
    74    21    23   ar
    75    32    29    1
    76    11    16   am
    77    11    10    1
    78    28    29    1
    79    14    13    1
    80    50    51    1
    81    29    30    1
    82    10    13    1
    83    10     9    1
    84     4     3    2
    85    13    15    1
    86    51    52    1
    87    45    44   ar
    88    45    43   ar
    89     7     6    2
    90    54    52   am
    91     3     9   am
    92     3     2    1
    93    30    31    2
    94    44    42   ar
    95    52    53    2
    96     6     8   am
    97     6     5    1
    98    43    41   ar
    99     5     2    1
   100    42    41   ar
   101     2     1    1
   102    41    40    1
   103    36    37    1
   104    40    37    1
   105    37    38    1
   106    38    39    2
