@<TRIPOS>MOLECULE
tmp/1zpuB03.pdb
 142 136 0 0 0
SMALL
GASTEIGER

@<TRIPOS>ATOM
      1  N         58.5140   81.9530   57.8880 N.3    35  ASP35      -0.1225
      2  CA        59.0080   80.8730   57.0350 C.3    35  ASP35       0.1805
      3  C         60.5180   80.7890   57.1240 C.2    35  ASP35       0.2598
      4  O         61.2090   81.8120   57.1660 O.2    35  ASP35      -0.2718
      5  CB        58.5950   81.0890   55.5930 C.3    35  ASP35       0.1424
      6  CG        57.1330   81.3530   55.4560 C.2    35  ASP35       0.3668
      7  OD1       56.3100   80.5400   55.9580 O.co2  35  ASP35      -0.2456
      8  OD2       56.8170   82.3910   54.8490 O.co2  35  ASP35      -0.2456
      9  N         61.0360   79.5700   57.1620 N.am   36  ILE36      -0.1966
     10  CA        62.4750   79.3780   57.2230 C.3    36  ILE36       0.1727
     11  C         63.0100   79.0030   55.8400 C.2    36  ILE36       0.2616
     12  O         62.4290   78.1750   55.1420 O.2    36  ILE36      -0.2715
     13  CB        62.8660   78.2950   58.2480 C.3    36  ILE36       0.0290
     14  CG1       62.1310   78.5100   59.5510 C.3    36  ILE36       0.0022
     15  CG2       64.3600   78.3150   58.5060 C.3    36  ILE36       0.0023
     16  CD1       62.2820   77.3340   60.5030 C.3    36  ILE36       0.0001
     17  N         64.1080   79.6380   55.4500 N.am   37  THR37      -0.1951
     18  CA        64.8130   79.2650   54.2310 C.3    37  THR37       0.1897
     19  C         66.2630   79.0200   54.5860 C.2    37  THR37       0.2313
     20  O         66.9350   79.9090   55.1110 O.2    37  THR37      -0.2863
     21  CB        64.7080   80.3420   53.1040 C.3    37  THR37       0.1794
     22  OG1       63.3350   80.6780   52.8710 O.3    37  THR37      -0.2208
     23  CG2       65.2900   79.8180   51.8030 C.3    37  THR37       0.0378
     24  N         56.2780   77.6120   56.5130 N.3   119  LEU119     -0.1245
     25  CA        57.0310   76.9280   55.4660 C.3   119  LEU119      0.1561
     26  C         58.5140   76.7480   55.8120 C.2   119  LEU119      0.2260
     27  O         59.1180   77.5770   56.5080 O.2   119  LEU119     -0.2867
     28  CB        56.8750   77.6560   54.1380 C.3   119  LEU119      0.0270
     29  CG        55.4750   77.7460   53.5430 C.3   119  LEU119      0.0019
     30  CD1       55.5660   78.2870   52.1440 C.3   119  LEU119      0.0001
     31  CD2       54.8080   76.4100   53.4920 C.3   119  LEU119      0.0001
     32  N         61.8560   75.9870   53.5740 N.3   121  ILE121     -0.1245
     33  CA        62.4260   75.7800   52.2430 C.3   121  ILE121      0.1561
     34  C         63.9180   75.5100   52.3110 C.2   121  ILE121      0.2260
     35  O         64.6700   76.2540   52.9460 O.2   121  ILE121     -0.2867
     36  CB        62.1140   76.9480   51.2510 C.3   121  ILE121      0.0252
     37  CG1       60.7250   76.8020   50.6630 C.3   121  ILE121      0.0019
     38  CG2       63.0150   76.9080   50.0770 C.3   121  ILE121      0.0019
     39  CD1       59.6220   77.0050   51.6430 C.3   121  ILE121      0.0001
     40  N         67.1140   75.1620   49.7680 N.3   123  LYS123     -0.1245
     41  CA        67.6040   75.3610   48.4090 C.3   123  LYS123      0.1561
     42  C         68.7440   74.4190   48.0630 C.2   123  LYS123      0.2260
     43  O         69.5860   74.1160   48.9240 O.2   123  LYS123     -0.2867
     44  CB        68.0980   76.7930   48.2440 C.3   123  LYS123      0.0271
     45  CG        67.0270   77.7770   47.8200 C.3   123  LYS123      0.0035
     46  CD        67.0120   78.9740   48.7520 C.3   123  LYS123      0.0206
     47  CE        68.4240   79.4850   49.0920 C.3   123  LYS123      0.1093
     48  NZ        68.4940   80.1330   50.4540 N.3   123  LYS123     -0.1314
     49  N         61.7170   84.0360   38.9110 N.3   133  GLU133     -0.1231
     50  CA        61.2210   84.4820   40.2100 C.3   133  GLU133      0.1699
     51  C         60.6230   83.2880   40.9190 C.2   133  GLU133      0.2592
     52  O         60.3010   82.2840   40.2780 O.2   133  GLU133     -0.2718
     53  CB        60.1310   85.5390   40.0250 C.3   133  GLU133      0.0402
     54  CG        60.5290   86.7700   39.1920 C.3   133  GLU133      0.1161
     55  CD        61.0680   87.9100   40.0360 C.2   133  GLU133      0.3649
     56  OE1       60.5130   88.1800   41.1270 O.co2 133  GLU133     -0.2457
     57  OE2       62.0430   88.5510   39.6040 O.co2 133  GLU133     -0.2457
     58  N         60.4510   83.4070   42.2350 N.am  134  GLU134     -0.1966
     59  CA        59.8960   82.3190   43.0420 C.3   134  GLU134      0.1733
     60  C         59.0350   82.8240   44.2030 C.2   134  GLU134      0.2616
     61  O         59.3180   83.8700   44.8040 O.2   134  GLU134     -0.2715
     62  CB        61.0170   81.4280   43.5680 C.3   134  GLU134      0.0429
     63  CG        61.9330   82.1330   44.5380 C.3   134  GLU134      0.1163
     64  CD        62.8480   81.1790   45.2530 C.2   134  GLU134      0.3649
     65  OE1       62.4060   80.5450   46.2450 O.co2 134  GLU134     -0.2457
     66  OE2       64.0170   81.0640   44.8220 O.co2 134  GLU134     -0.2457
     67  N         57.9840   82.0690   44.5190 N.am  135  LEU135     -0.1963
     68  CA        57.1150   82.3570   45.6670 C.3   135  LEU135      0.1728
     69  C         56.4250   81.0710   46.1160 C.2   135  LEU135      0.2617
     70  O         56.5670   80.0320   45.4760 O.2   135  LEU135     -0.2715
     71  CB        56.0660   83.4200   45.3080 C.3   135  LEU135      0.0311
     72  CG        54.8490   82.9830   44.4670 C.3   135  LEU135      0.0022
     73  CD1       53.6640   83.9490   44.5900 C.3   135  LEU135      0.0001
     74  CD2       55.2130   82.7750   43.0110 C.3   135  LEU135      0.0001
     75  N         55.6750   81.1560   47.2100 N.am  136  SER136     -0.1936
     76  CA        54.8410   80.0540   47.6720 C.3   136  SER136      0.2055
     77  C         53.4040   80.4980   47.8970 C.2   136  SER136      0.2643
     78  O         53.1360   81.6870   48.1200 O.2   136  SER136     -0.2714
     79  CB        55.3650   79.5010   48.9900 C.3   136  SER136      0.2130
     80  OG        56.7240   79.1220   48.8910 O.3   136  SER136     -0.2179
     81  N         52.4830   79.5400   47.8580 N.am  137  LEU137     -0.1963
     82  CA        51.1230   79.7700   48.3170 C.3   137  LEU137      0.1728
     83  C         50.8030   78.7180   49.3650 C.2   137  LEU137      0.2616
     84  O         51.0140   77.5360   49.1320 O.2   137  LEU137     -0.2715
     85  CB        50.1300   79.6860   47.1600 C.3   137  LEU137      0.0311
     86  CG        50.2010   80.8170   46.1280 C.3   137  LEU137      0.0022
     87  CD1       49.3440   80.5040   44.9010 C.3   137  LEU137      0.0001
     88  CD2       49.8310   82.1870   46.7090 C.3   137  LEU137      0.0001
     89  N         50.3270   79.1430   50.5280 N.am  138  SER138     -0.1950
     90  CA        49.9090   78.2140   51.5690 C.3   138  SER138      0.1924
     91  C         48.3990   78.1180   51.5630 C.2   138  SER138      0.2314
     92  O         47.7140   78.9980   52.1120 O.2   138  SER138     -0.2863
     93  CB        50.3540   78.7030   52.9420 C.3   138  SER138      0.2116
     94  OG        51.7310   78.4880   53.1400 O.3   138  SER138     -0.2180
     95  N         47.6800   81.9450   52.1310 N.3   173  ASN173     -0.1240
     96  CA        48.6080   82.8410   52.8270 C.3   173  ASN173      0.1653
     97  C         47.8990   83.5870   53.9550 C.2   173  ASN173      0.2266
     98  O         48.1360   84.7650   54.1540 O.2   173  ASN173     -0.2867
     99  CB        49.1810   83.8810   51.8620 C.3   173  ASN173      0.1155
    100  CG        50.4060   83.4010   51.0970 C.2   173  ASN173      0.2627
    101  OD1       50.7040   82.1930   50.9930 O.2   173  ASN173     -0.2716
    102  ND2       51.1140   84.3790   50.5220 N.am  173  ASN173     -0.0877
    103  N         43.3170   87.0310   47.6850 N.3   178  LEU178     -0.1231
    104  CA        44.6800   87.5130   47.7270 C.3   178  LEU178      0.1693
    105  C         45.1200   88.0120   46.3620 C.2   178  LEU178      0.2593
    106  O         44.6680   87.5170   45.3230 O.2   178  LEU178     -0.2718
    107  CB        45.5680   86.3530   48.1720 C.3   178  LEU178      0.0284
    108  CG        47.0900   86.3800   48.1200 C.3   178  LEU178      0.0019
    109  CD1       47.6920   87.0730   49.3420 C.3   178  LEU178      0.0001
    110  CD2       47.5730   84.9660   48.0430 C.3   178  LEU178      0.0001
    111  N         46.0330   88.9750   46.3750 N.am  179  THR179     -0.1939
    112  CA        46.6220   89.5090   45.1540 C.3   179  THR179      0.2028
    113  C         48.0300   88.9680   44.8940 C.2   179  THR179      0.2642
    114  O         48.8770   88.9650   45.7860 O.2   179  THR179     -0.2714
    115  CB        46.7060   91.0250   45.2330 C.3   179  THR179      0.1808
    116  OG1       45.3890   91.5530   45.3770 O.3   179  THR179     -0.2208
    117  CG2       47.3320   91.5880   43.9940 C.3   179  THR179      0.0379
    118  N         48.2650   88.5160   43.6680 N.am  180  TRP180     -0.1973
    119  CA        49.5780   88.1290   43.2190 C.3   180  TRP180      0.1640
    120  C         49.9200   88.9670   41.9970 C.2   180  TRP180      0.2290
    121  O         49.3890   88.7330   40.9020 O.2   180  TRP180     -0.2864
    122  CB        49.5820   86.6460   42.8720 C.3   180  TRP180      0.0576
    123  CG        50.8820   86.1600   42.3410 C.ar  180  TRP180      0.0006
    124  CD1       52.1150   86.6930   42.5760 C.ar  180  TRP180      0.0946
    125  CD2       51.0920   85.0170   41.5110 C.ar  180  TRP180      0.0152
    126  NE1       53.0760   85.9670   41.9300 N.ar  180  TRP180     -0.2442
    127  CE2       52.4780   84.9260   41.2710 C.ar  180  TRP180      0.0810
    128  CE3       50.2450   84.0590   40.9460 C.ar  180  TRP180      0.0012
    129  CZ2       53.0400   83.9220   40.4790 C.ar  180  TRP180      0.0191
    130  CZ3       50.8010   83.0540   40.1600 C.ar  180  TRP180      0.0001
    131  CH2       52.1890   82.9940   39.9360 C.ar  180  TRP180      0.0015
    132  N         55.5880   77.4470   44.7200 N.3   191  ARG191     -0.1245
    133  CA        55.4940   76.3570   45.7040 C.3   191  ARG191      0.1563
    134  C         54.1040   76.3300   46.3230 C.2   191  ARG191      0.2260
    135  O         53.7640   77.1960   47.1200 O.2   191  ARG191     -0.2867
    136  CB        56.5440   76.4980   46.8000 C.3   191  ARG191      0.0307
    137  CG        57.9780   76.5770   46.3240 C.3   191  ARG191      0.0489
    138  CD        58.8280   77.0750   47.4730 C.3   191  ARG191      0.2205
    139  NE        60.0060   77.8170   47.0340 N.pl3 191  ARG191     -0.0865
    140  CZ        61.2020   77.2580   46.8600 C.cat 191  ARG191      0.5346
    141  NH1       61.3690   75.9560   47.1010 N.pl3 191  ARG191      0.1354
    142  NH2       62.2390   77.9910   46.4570 N.pl3 191  ARG191      0.1354
@<TRIPOS>BOND
     1    49    50    1
     2    54    53    1
     3    54    55    1
     4    57    55   ar
     5   131   130   ar
     6   131   129   ar
     7    53    50    1
     8    55    56   ar
     9   130   128   ar
    10    50    51    1
    11    52    51    2
    12   129   127   ar
    13   121   120    2
    14    51    58   am
    15   128   125   ar
    16   127   125   ar
    17   127   126   ar
    18   125   123   ar
    19   126   124   ar
    20   120   119    1
    21    58    59    1
    22   123   124   ar
    23   123   122    1
    24   122   119    1
    25    74    72    1
    26    59    62    1
    27    59    60    1
    28   119   118    1
    29    62    63    1
    30   118   113   am
    31   117   115    1
    32    60    67   am
    33    60    61    2
    34    72    73    1
    35    72    71    1
    36    67    68    1
    37    63    64    1
    38   132   133    1
    39    66    64   ar
    40   113   112    1
    41   113   114    2
    42    87    86    1
    43   112   115    1
    44   112   111    1
    45   115   116    1
    46    64    65   ar
    47    71    68    1
    48   106   105    2
    49    70    69    2
    50    68    69    1
    51   133   134    1
    52   133   136    1
    53    69    75   am
    54    86    88    1
    55    86    85    1
    56   134   135    2
    57   137   136    1
    58   137   138    1
    59   105   111   am
    60   105   104    1
    61   142   140    1
    62   140   139    2
    63   140   141    1
    64   139   138    1
    65    85    82    1
    66    75    76    1
    67    76    77    1
    68    76    79    1
    69   103   104    1
    70   104   107    1
    71    45    44    1
    72    45    46    1
    73    81    77   am
    74    81    82    1
    75    77    78    2
    76   110   108    1
    77    42    41    1
    78    42    43    2
    79   108   107    1
    80   108   109    1
    81    44    41    1
    82    82    83    1
    83    41    40    1
    84    46    47    1
    85    80    79    1
    86    47    48    1
    87    84    83    2
    88    83    89   am
    89    38    36    1
    90   102   100   am
    91    89    90    1
    92    37    36    1
    93    37    39    1
    94   101   100    2
    95   100    99    1
    96    36    33    1
    97    91    90    1
    98    91    92    2
    99    90    93    1
   100    23    21    1
   101    99    96    1
   102    95    96    1
   103    30    29    1
   104    33    34    1
   105    33    32    1
   106    34    35    2
   107    96    97    1
   108    22    21    1
   109    93    94    1
   110    21    18    1
   111    31    29    1
   112    29    28    1
   113    97    98    2
   114    28    25    1
   115    18    19    1
   116    18    17    1
   117    19    20    2
   118     8     6   ar
   119    12    11    2
   120    17    11   am
   121     6     5    1
   122     6     7   ar
   123    25    26    1
   124    25    24    1
   125     5     2    1
   126    26    27    2
   127    11    10    1
   128     2     3    1
   129     2     1    1
   130     3     9   am
   131     3     4    2
   132     9    10    1
   133    10    13    1
   134    13    15    1
   135    13    14    1
   136    14    16    1
