@<TRIPOS>MOLECULE
tmp/1zpuC01.pdb
 109 104 0 0 0
SMALL
GASTEIGER

@<TRIPOS>ATOM
      1  N         57.6160  115.4180  116.2610 N.3    15  ASN15      -0.1240
      2  CA        57.7000  116.3980  115.2070 C.3    15  ASN15       0.1653
      3  C         56.9080  115.9160  114.0080 C.2    15  ASN15       0.2266
      4  O         57.4540  115.3360  113.0920 O.2    15  ASN15      -0.2867
      5  CB        59.1380  116.7140  114.8240 C.3    15  ASN15       0.1155
      6  CG        59.2310  117.9360  113.9580 C.2    15  ASN15       0.2627
      7  OD1       58.2570  118.3260  113.3020 O.2    15  ASN15      -0.2716
      8  ND2       60.3850  118.5670  113.9600 N.am   15  ASN15      -0.0877
      9  N         54.9050  117.6730  111.7950 N.3    17  ASP17      -0.1225
     10  CA        55.1540  118.5940  110.7000 C.3    17  ASP17       0.1805
     11  C         56.4080  118.3000  109.8940 C.2    17  ASP17       0.2598
     12  O         56.4060  118.3360  108.6690 O.2    17  ASP17      -0.2718
     13  CB        55.3330  119.9970  111.3090 C.3    17  ASP17       0.1424
     14  CG        54.5810  121.0080  110.5630 C.2    17  ASP17       0.3668
     15  OD1       53.9120  120.5710  109.6120 O.co2  17  ASP17      -0.2456
     16  OD2       54.6290  122.2030  110.8960 O.co2  17  ASP17      -0.2456
     17  N         57.4910  118.0330  110.6100 N.am   18  GLY18      -0.1942
     18  CA        58.8030  118.1430  110.0480 C.3    18  GLY18       0.2014
     19  C         59.4930  119.3970  110.5570 C.2    18  GLY18       0.2638
     20  O         60.7150  119.5350  110.4060 O.2    18  GLY18      -0.2714
     21  N         58.7450  120.3200  111.1630 N.am   19  LEU19      -0.1977
     22  CA        59.3750  121.5810  111.5870 C.3    19  LEU19       0.1596
     23  C         59.1260  122.1230  113.0010 C.2    19  LEU19       0.2287
     24  O         59.4540  123.2770  113.2880 O.2    19  LEU19      -0.2864
     25  CB        59.1880  122.6900  110.5420 C.3    19  LEU19       0.0297
     26  CG        57.9100  122.9500  109.7810 C.3    19  LEU19       0.0022
     27  CD1       58.0280  124.3490  109.3190 C.3    19  LEU19       0.0001
     28  CD2       57.7880  122.0050  108.5820 C.3    19  LEU19       0.0001
     29  N         51.3110  124.5030  115.4800 N.3   144  HIS144     -0.1241
     30  CA        52.5410  124.4060  116.2380 C.3   144  HIS144      0.1621
     31  C         52.3290  124.6700  117.7150 C.2   144  HIS144      0.2264
     32  O         53.2060  124.3860  118.5260 O.2   144  HIS144     -0.2867
     33  CB        53.5540  125.3720  115.6720 C.3   144  HIS144      0.0745
     34  CG        54.1900  124.8740  114.4240 C.ar  144  HIS144      0.0817
     35  ND1       55.3680  125.3880  113.9300 N.ar  144  HIS144     -0.2268
     36  CD2       53.8380  123.8650  113.5920 C.ar  144  HIS144      0.1154
     37  CE1       55.6950  124.7390  112.8270 C.ar  144  HIS144      0.1986
     38  NE2       54.7810  123.8130  112.6010 N.ar  144  HIS144     -0.2212
     39  N         49.7100  125.8220  110.6010 N.3   168  GLN168     -0.1231
     40  CA        51.0440  126.0410  110.0730 C.3   168  GLN168      0.1698
     41  C         51.3310  125.2200  108.8400 C.2   168  GLN168      0.2592
     42  O         52.1740  125.6110  108.0280 O.2   168  GLN168     -0.2718
     43  CB        52.1000  125.7740  111.1380 C.3   168  GLN168      0.0381
     44  CG        52.3850  126.9600  112.0240 C.3   168  GLN168      0.0905
     45  CD        51.1760  127.3980  112.8230 C.2   168  GLN168      0.2608
     46  OE1       50.8330  126.7870  113.8280 O.2   168  GLN168     -0.2717
     47  NE2       50.5260  128.4630  112.3780 N.am  168  GLN168     -0.0878
     48  N         50.6420  124.0900  108.6960 N.am  169  ASN169     -0.1974
     49  CA        50.8650  123.1990  107.5720 C.3   169  ASN169      0.1688
     50  C         49.7420  122.2000  107.4010 C.2   169  ASN169      0.2292
     51  O         49.0380  121.8930  108.3730 O.2   169  ASN169     -0.2864
     52  CB        52.1830  122.4370  107.7680 C.3   169  ASN169      0.1181
     53  CG        53.3570  123.0930  107.0510 C.2   169  ASN169      0.2629
     54  OD1       53.2330  123.5100  105.8990 O.2   169  ASN169     -0.2716
     55  ND2       54.5050  123.1760  107.7240 N.am  169  ASN169     -0.0877
     56  N         52.3540  113.0610  108.7570 N.3   175  THR175     -0.1203
     57  CA        53.6080  113.7050  108.2930 C.3   175  THR175      0.1994
     58  C         53.3160  114.6000  107.1240 C.2   175  THR175      0.2618
     59  O         52.1580  114.8510  106.7840 O.2   175  THR175     -0.2717
     60  CB        54.6850  112.7530  107.7240 C.3   175  THR175      0.1784
     61  OG1       54.0470  111.5920  107.2030 O.3   175  THR175     -0.2211
     62  CG2       55.7490  112.4040  108.7610 C.3   175  THR175      0.0376
     63  N         54.3990  115.0720  106.5240 N.am  176  MET176     -0.1965
     64  CA        54.3550  115.7490  105.2550 C.3   176  MET176      0.1736
     65  C         55.1190  114.9460  104.2220 C.2   176  MET176      0.2616
     66  O         55.8880  114.0400  104.5570 O.2   176  MET176     -0.2715
     67  CB        54.9440  117.1420  105.3910 C.3   176  MET176      0.0427
     68  CG        54.0820  118.0880  106.2150 C.3   176  MET176      0.0599
     69  SD        54.5830  119.8040  105.9680 S.3   176  MET176     -0.1393
     70  CE        53.7850  120.1940  104.4080 C.3   176  MET176      0.0692
     71  N         54.9020  115.2910  102.9590 N.am  177  ASN177     -0.1972
     72  CA        55.6220  114.6700  101.8260 C.3   177  ASN177      0.1688
     73  C         55.8120  113.1460  101.9680 C.2   177  ASN177      0.2292
     74  O         56.9160  112.6260  102.0690 O.2   177  ASN177     -0.2864
     75  CB        56.9050  115.4480  101.4830 C.3   177  ASN177      0.1181
     76  CG        57.5170  116.1080  102.6830 C.2   177  ASN177      0.2629
     77  OD1       57.9780  115.4280  103.5880 O.2   177  ASN177     -0.2716
     78  ND2       57.5120  117.4280  102.7220 N.am  177  ASN177     -0.0877
     79  N         52.2700  135.0000  104.6990 N.3   266  SER266     -0.1202
     80  CA        52.9770  134.9540  103.4200 C.3   266  SER266      0.2020
     81  C         53.8990  133.7500  103.2690 C.2   266  SER266      0.2619
     82  O         54.3110  133.4220  102.1550 O.2   266  SER266     -0.2717
     83  CB        53.7700  136.2380  103.2210 C.3   266  SER266      0.2103
     84  OG        54.5840  136.4640  104.3550 O.3   266  SER266     -0.2182
     85  N         54.2070  133.0890  104.3810 N.am  267  ASP267     -0.1959
     86  CA        55.1200  131.9470  104.3670 C.3   267  ASP267      0.1840
     87  C         54.3990  130.5930  104.4090 C.2   267  ASP267      0.2622
     88  O         55.0210  129.5370  104.2270 O.2   267  ASP267     -0.2715
     89  CB        56.1200  132.0720  105.5210 C.3   267  ASP267      0.1450
     90  CG        55.5000  131.7660  106.8810 C.2   267  ASP267      0.3671
     91  OD1       56.2180  131.1550  107.7020 O.co2 267  ASP267     -0.2456
     92  OD2       54.3180  132.1250  107.1340 O.co2 267  ASP267     -0.2456
     93  N         53.0920  130.6330  104.6510 N.am  268  LEU268     -0.1963
     94  CA        52.2880  129.4240  104.7300 C.3   268  LEU268      0.1728
     95  C         52.2440  128.6810  103.4010 C.2   268  LEU268      0.2616
     96  O         51.7680  129.2150  102.3990 O.2   268  LEU268     -0.2715
     97  CB        50.8690  129.7460  105.1910 C.3   268  LEU268      0.0311
     98  CG        49.8950  128.5620  105.1940 C.3   268  LEU268      0.0022
     99  CD1       50.3220  127.4820  106.1790 C.3   268  LEU268      0.0001
    100  CD2       48.4830  129.0340  105.4990 C.3   268  LEU268      0.0001
    101  N         52.7410  127.4480  103.4050 N.am  269  GLN269     -0.1977
    102  CA        52.5890  126.5780  102.2530 C.3   269  GLN269      0.1601
    103  C         51.1240  126.1750  102.0890 C.2   269  GLN269      0.2287
    104  O         50.6240  125.3130  102.8140 O.2   269  GLN269     -0.2864
    105  CB        53.4950  125.3560  102.3660 C.3   269  GLN269      0.0394
    106  CG        54.9500  125.6590  102.0450 C.3   269  GLN269      0.0908
    107  CD        55.1630  126.1590  100.6030 C.2   269  GLN269      0.2608
    108  OE1       54.6720  125.5530   99.6330 O.2   269  GLN269     -0.2717
    109  NE2       55.9070  127.2600  100.4630 N.am  269  GLN269     -0.0878
@<TRIPOS>BOND
     1   108   107    2
     2   109   107   am
     3   107   106    1
     4    75    72    1
     5    75    76    1
     6    72    73    1
     7    72    71    1
     8    73    74    2
     9   106   105    1
    10   103   102    1
    11   103   104    2
    12    82    81    2
    13   102   105    1
    14   102   101    1
    15    96    95    2
    16    76    78   am
    17    76    77    2
    18    71    65   am
    19    83    80    1
    20    83    84    1
    21    81    80    1
    22    81    85   am
    23    95   101   am
    24    95    94    1
    25    80    79    1
    26    65    66    2
    27    65    64    1
    28    88    87    2
    29    86    85    1
    30    86    87    1
    31    86    89    1
    32    70    69    1
    33    87    93   am
    34    93    94    1
    35    94    97    1
    36    97    98    1
    37    98   100    1
    38    98    99    1
    39    64    67    1
    40    64    63    1
    41    67    68    1
    42    89    90    1
    43    54    53    2
    44    69    68    1
    45    63    58   am
    46    59    58    2
    47    90    92   ar
    48    90    91   ar
    49    53    55   am
    50    53    52    1
    51    58    57    1
    52    61    60    1
    53    50    49    1
    54    50    51    2
    55    49    52    1
    56    49    48    1
    57    60    57    1
    58    60    62    1
    59    42    41    2
    60    57    56    1
    61    28    26    1
    62    12    11    2
    63    48    41   am
    64    41    40    1
    65    27    26    1
    66    15    14   ar
    67    26    25    1
    68    11    17   am
    69    11    10    1
    70    18    19    1
    71    18    17    1
    72    40    39    1
    73    40    43    1
    74    20    19    2
    75    25    22    1
    76    19    21   am
    77    14    16   ar
    78    14    13    1
    79    10    13    1
    80    10     9    1
    81    43    44    1
    82    21    22    1
    83    22    23    1
    84    44    45    1
    85    47    45   am
    86    38    37   ar
    87    38    36   ar
    88    45    46    2
    89    37    35   ar
    90    23    24    2
    91     4     3    2
    92     7     6    2
    93    36    34   ar
    94    35    34   ar
    95     6     8   am
    96     6     5    1
    97     3     2    1
    98    34    33    1
    99     5     2    1
   100     2     1    1
   101    29    30    1
   102    33    30    1
   103    30    31    1
   104    31    32    2
