@<TRIPOS>MOLECULE
tmp/1zpuB07.pdb
 115 107 0 0 0
SMALL
GASTEIGER

@<TRIPOS>ATOM
      1  N         47.8140   76.8320   79.2550 N.3    54  ASN54      -0.1225
      2  CA        47.1460   75.5810   79.6550 C.3    54  ASN54       0.1785
      3  C         47.3150   74.3900   78.6770 C.2    54  ASN54       0.2598
      4  O         46.9340   73.2540   78.9840 O.2    54  ASN54      -0.2718
      5  CB        45.6600   75.8670   79.9020 C.3    54  ASN54       0.1169
      6  CG        45.0360   76.7430   78.7870 C.2    54  ASN54       0.2627
      7  OD1       45.6160   76.9300   77.6840 O.2    54  ASN54      -0.2716
      8  ND2       43.8520   77.2890   79.0830 N.am   54  ASN54      -0.0877
      9  N         47.8840   74.6460   77.5090 N.am   55  THR55      -0.1939
     10  CA        48.1670   73.5700   76.5650 C.3    55  THR55       0.2028
     11  C         49.6300   73.1370   76.6340 C.2    55  THR55       0.2642
     12  O         50.4900   73.8750   77.1310 O.2    55  THR55      -0.2714
     13  CB        47.9290   74.0080   75.0920 C.3    55  THR55       0.1808
     14  OG1       47.3390   75.3180   75.0490 O.3    55  THR55      -0.2208
     15  CG2       47.0600   72.9890   74.3490 C.3    55  THR55       0.0379
     16  N         49.9050   71.9400   76.1220 N.am   56  ASN56      -0.1971
     17  CA        51.2670   71.5630   75.7900 C.3    56  ASN56       0.1688
     18  C         51.5710   72.0450   74.3690 C.2    56  ASN56       0.2292
     19  O         50.6530   72.4880   73.6800 O.2    56  ASN56      -0.2864
     20  CB        51.4360   70.0530   75.9210 C.3    56  ASN56       0.1181
     21  CG        51.5560   69.6030   77.3760 C.2    56  ASN56       0.2629
     22  OD1       51.9060   70.3920   78.2610 O.2    56  ASN56      -0.2716
     23  ND2       51.2890   68.3110   77.6190 N.am   56  ASN56      -0.0877
     24  N         55.4500   61.7090   72.7200 N.3    77  PHE77      -0.1241
     25  CA        55.3000   60.2830   73.0190 C.3    77  PHE77       0.1605
     26  C         55.8000   59.3060   71.9530 C.2    77  PHE77       0.2264
     27  O         55.6360   58.0900   72.0960 O.2    77  PHE77      -0.2867
     28  CB        53.8830   59.9700   73.5080 C.3    77  PHE77       0.0534
     29  CG        53.5600   60.6440   74.8010 C.ar   77  PHE77      -0.0203
     30  CD1       52.7610   61.7840   74.8230 C.ar   77  PHE77      -0.0042
     31  CD2       54.1170   60.1880   75.9820 C.ar   77  PHE77      -0.0042
     32  CE1       52.4890   62.4360   76.0160 C.ar   77  PHE77      -0.0003
     33  CE2       53.8550   60.8250   77.1660 C.ar   77  PHE77      -0.0003
     34  CZ        53.0390   61.9540   77.1880 C.ar   77  PHE77      -0.0000
     35  N         55.8430   66.0990   75.7900 N.3    82  PRO82      -0.2116
     36  CA        55.2630   67.3870   75.3930 C.3    82  PRO82       0.1372
     37  C         55.9050   68.5780   76.0890 C.2    82  PRO82       0.2244
     38  O         56.4150   68.4410   77.1940 O.2    82  PRO82      -0.2868
     39  CB        53.8040   67.2690   75.8410 C.3    82  PRO82       0.0268
     40  CG        53.5670   65.8190   76.0480 C.3    82  PRO82       0.0207
     41  CD        54.8630   65.2760   76.5190 C.3    82  PRO82       0.0892
     42  N         55.7110   71.6000   78.1990 N.3    84  ALA84      -0.1245
     43  CA        54.8280   72.1610   79.2130 C.3    84  ALA84       0.1562
     44  C         54.8790   73.6880   79.1980 C.2    84  ALA84       0.2260
     45  O         55.8950   74.2690   78.8140 O.2    84  ALA84      -0.2867
     46  CB        55.2090   71.6270   80.5790 C.3    84  ALA84       0.0290
     47  N         51.0010   68.7600   68.5390 N.3   108  THR108     -0.1203
     48  CA        50.1080   68.4820   69.6520 C.3   108  THR108      0.1994
     49  C         48.6800   68.3200   69.1020 C.2   108  THR108      0.2617
     50  O         48.5280   67.7700   68.0190 O.2   108  THR108     -0.2717
     51  CB        50.3260   69.4320   70.8880 C.3   108  THR108      0.1784
     52  OG1       51.6730   69.2870   71.3630 O.3   108  THR108     -0.2211
     53  CG2       49.4030   69.0660   72.0670 C.3   108  THR108      0.0376
     54  N         47.6420   68.7330   69.8130 N.am  109  ASP109     -0.1973
     55  CA        46.2900   68.2250   69.5330 C.3   109  ASP109      0.1709
     56  C         45.7510   68.6840   68.1780 C.2   109  ASP109      0.2293
     57  O         45.9410   67.9810   67.1790 O.2   109  ASP109     -0.2864
     58  CB        45.3380   68.5220   70.6880 C.3   109  ASP109      0.1436
     59  CG        45.6930   67.7130   71.9570 C.2   109  ASP109      0.3671
     60  OD1       45.4470   66.4680   71.9540 O.co2 109  ASP109     -0.2456
     61  OD2       46.2230   68.3190   72.9410 O.co2 109  ASP109     -0.2456
     62  N         46.9620   54.7940   71.2060 N.3   342  THR342     -0.1218
     63  CA        46.8320   55.3270   72.5490 C.3   342  THR342      0.1862
     64  C         48.2220   55.5840   73.1180 C.2   342  THR342      0.2287
     65  O         48.9610   54.6430   73.4110 O.2   342  THR342     -0.2866
     66  CB        46.0740   54.3500   73.4460 C.3   342  THR342      0.1770
     67  OG1       45.0360   53.7250   72.6850 O.3   342  THR342     -0.2211
     68  CG2       45.4640   55.0780   74.6350 C.3   342  THR342      0.0375
     69  N         52.9370   55.8180   78.5250 N.3   345  LYS345     -0.1245
     70  CA        53.3610   56.6290   79.6720 C.3   345  LYS345      0.1561
     71  C         54.7880   57.1710   79.5270 C.2   345  LYS345      0.2260
     72  O         55.1810   58.0900   80.2480 O.2   345  LYS345     -0.2867
     73  CB        53.2390   55.8400   80.9760 C.3   345  LYS345      0.0271
     74  CG        51.8350   55.7800   81.5670 C.3   345  LYS345      0.0035
     75  CD        51.7780   54.8040   82.7580 C.3   345  LYS345      0.0206
     76  CE        50.3460   54.3900   83.0740 C.3   345  LYS345      0.1093
     77  NZ        50.2200   52.8930   83.1870 N.3   345  LYS345     -0.1314
     78  N         57.7880   68.6250   82.6940 N.3   503  CYS503     -0.1221
     79  CA        56.4760   68.1430   82.2590 C.3   503  CYS503      0.1808
     80  C         55.9740   67.0080   83.1470 C.2   503  CYS503      0.2602
     81  O         54.8320   66.5590   83.0000 O.2   503  CYS503     -0.2717
     82  CB        56.5870   67.6550   80.8190 C.3   503  CYS503      0.0970
     83  SG        55.0500   67.1300   80.0240 S.3   503  CYS503     -0.0800
     84  N         56.8350   66.5850   84.0850 N.am  504  SER504     -0.1938
     85  CA        56.6610   65.3690   84.9100 C.3   504  SER504      0.2055
     86  C         56.2540   64.1190   84.1190 C.2   504  SER504      0.2642
     87  O         55.2720   63.4400   84.4300 O.2   504  SER504     -0.2714
     88  CB        55.7710   65.6280   86.1320 C.3   504  SER504      0.2130
     89  OG        55.3180   66.9710   86.1530 O.3   504  SER504     -0.2179
     90  N         57.0450   63.8510   83.0780 N.am  505  VAL505     -0.1977
     91  CA        56.9330   62.6790   82.2160 C.3   505  VAL505      0.1596
     92  C         58.2500   61.9120   82.2990 C.2   505  VAL505      0.2287
     93  O         59.3310   62.4830   82.1120 O.2   505  VAL505     -0.2864
     94  CB        56.6980   63.1060   80.7760 C.3   505  VAL505      0.0276
     95  CG1       56.6740   61.8940   79.8510 C.3   505  VAL505      0.0022
     96  CG2       55.4100   63.8940   80.6860 C.3   505  VAL505      0.0022
     97  N         48.4720   51.2670   79.4570 N.3   522  THR522     -0.1203
     98  CA        47.4440   52.2950   79.2640 C.3   522  THR522      0.1994
     99  C         46.6940   51.9860   77.9430 C.2   522  THR522      0.2618
    100  O         47.1910   52.2500   76.8600 O.2   522  THR522     -0.2717
    101  CB        48.0610   53.7570   79.3160 C.3   522  THR522      0.1784
    102  OG1       47.1250   54.7310   78.8300 O.3   522  THR522     -0.2211
    103  CG2       49.3920   53.8600   78.5330 C.3   522  THR522      0.0376
    104  N         45.5090   51.3820   78.0590 N.am  523  GLY523     -0.1956
    105  CA        44.7800   50.8380   76.9110 C.3   523  GLY523      0.1869
    106  C         43.6820   51.7070   76.3130 C.2   523  GLY523      0.2309
    107  O         43.3320   52.7650   76.8510 O.2   523  GLY523     -0.2863
    108  N         39.5960   52.0430   75.1190 N.3   525  ASN525     -0.1240
    109  CA        38.3020   51.6190   75.6450 C.3   525  ASN525      0.1653
    110  C         37.9070   50.3020   74.9780 C.2   525  ASN525      0.2266
    111  O         38.2290   50.0720   73.8170 O.2   525  ASN525     -0.2867
    112  CB        37.2420   52.7230   75.4630 C.3   525  ASN525      0.1155
    113  CG        37.4370   53.9200   76.4310 C.2   525  ASN525      0.2627
    114  OD1       37.5760   55.0640   76.0110 O.2   525  ASN525     -0.2716
    115  ND2       37.4360   53.6450   77.7200 N.am  525  ASN525     -0.0877
@<TRIPOS>BOND
     1    57    56    2
     2    50    49    2
     3    56    55    1
     4    47    48    1
     5    49    48    1
     6    49    54   am
     7    55    54    1
     8    55    58    1
     9    48    51    1
    10    58    59    1
    11    51    52    1
    12    51    53    1
    13    62    63    1
    14    26    27    2
    15    26    25    1
    16    60    59   ar
    17    59    61   ar
    18    63    64    1
    19    63    66    1
    20    67    66    1
    21    24    25    1
    22    25    28    1
    23    64    65    2
    24    66    68    1
    25    28    29    1
    26    19    18    2
    27   111   110    2
    28    15    13    1
    29    18    17    1
    30    29    30   ar
    31    29    31   ar
    32    30    32   ar
    33   110   109    1
    34    14    13    1
    35    13    10    1
    36   108   109    1
    37    36    35    1
    38    36    39    1
    39    36    37    1
    40   112   109    1
    41   112   113    1
    42    35    41    1
    43    17    20    1
    44    17    16    1
    45    39    40    1
    46    20    21    1
    47    31    33   ar
    48   114   113    2
    49    32    34   ar
    50    40    41    1
    51    37    38    2
    52    16    11   am
    53   106   107    2
    54   106   105    1
    55   113   115   am
    56    10    11    1
    57    10     9    1
    58    11    12    2
    59   100    99    2
    60   105   104    1
    61    33    34   ar
    62    21    23   am
    63    21    22    2
    64     9     3   am
    65     7     6    2
    66    99   104   am
    67    99    98    1
    68    42    43    1
    69    69    70    1
    70   103   101    1
    71     3     4    2
    72     3     2    1
    73     6     8   am
    74     6     5    1
    75    45    44    2
    76   102   101    1
    77    44    43    1
    78    43    46    1
    79     1     2    1
    80    98   101    1
    81    98    97    1
    82    71    70    1
    83    71    72    2
    84     2     5    1
    85    70    73    1
    86    95    94    1
    87    83    82    1
    88    96    94    1
    89    94    91    1
    90    82    79    1
    91    73    74    1
    92    74    75    1
    93    93    92    2
    94    91    92    1
    95    91    90    1
    96    79    78    1
    97    79    80    1
    98    75    76    1
    99    81    80    2
   100    76    77    1
   101    90    86   am
   102    80    84   am
   103    84    85    1
   104    86    87    2
   105    86    85    1
   106    85    88    1
   107    88    89    1
