@<TRIPOS>MOLECULE
tmp/1zpuB10.pdb
 106 105 0 0 0
SMALL
GASTEIGER

@<TRIPOS>ATOM
      1  N         43.8360   75.6140   40.6430 N.3   204  TRP204     -0.1241
      2  CA        44.1940   75.9680   39.2600 C.3   204  TRP204      0.1605
      3  C         44.2250   77.4770   39.0200 C.2   204  TRP204      0.2264
      4  O         43.6890   78.2620   39.8220 O.2   204  TRP204     -0.2867
      5  CB        43.2750   75.2940   38.2360 C.3   204  TRP204      0.0550
      6  CG        41.8960   75.8380   38.1940 C.ar  204  TRP204      0.0003
      7  CD1       41.4040   76.7600   37.3140 C.ar  204  TRP204      0.0946
      8  CD2       40.8120   75.4950   39.0650 C.ar  204  TRP204      0.0152
      9  NE1       40.0710   77.0090   37.5760 N.ar  204  TRP204     -0.2442
     10  CE2       39.6840   76.2430   38.6460 C.ar  204  TRP204      0.0810
     11  CE3       40.6780   74.6210   40.1510 C.ar  204  TRP204      0.0012
     12  CZ2       38.4480   76.1490   39.2830 C.ar  204  TRP204      0.0191
     13  CZ3       39.4470   74.5230   40.7770 C.ar  204  TRP204      0.0001
     14  CH2       38.3510   75.2850   40.3470 C.ar  204  TRP204      0.0015
     15  N         39.3780   75.1880   45.4740 N.3   255  LYS255     -0.1245
     16  CA        38.0610   74.6000   45.6940 C.3   255  LYS255      0.1561
     17  C         38.1220   73.4600   46.6940 C.2   255  LYS255      0.2260
     18  O         39.0600   72.6680   46.6750 O.2   255  LYS255     -0.2867
     19  CB        37.5200   74.0730   44.3770 C.3   255  LYS255      0.0271
     20  CG        36.0250   73.7520   44.3840 C.3   255  LYS255      0.0035
     21  CD        35.6690   72.8250   43.2300 C.3   255  LYS255      0.0206
     22  CE        34.3860   73.2270   42.5730 C.3   255  LYS255      0.1093
     23  NZ        33.1800   72.9330   43.3840 N.3   255  LYS255     -0.1314
     24  N         30.9900   78.9420   51.0770 N.3   269  GLN269     -0.1231
     25  CA        31.6550   79.1600   49.7970 C.3   269  GLN269      0.1698
     26  C         32.6010   77.9970   49.4860 C.2   269  GLN269      0.2592
     27  O         33.6900   77.8930   50.0520 O.2   269  GLN269     -0.2718
     28  CB        32.4090   80.4950   49.7670 C.3   269  GLN269      0.0381
     29  CG        31.5250   81.7450   49.6100 C.3   269  GLN269      0.0905
     30  CD        30.6930   81.7740   48.3060 C.2   269  GLN269      0.2608
     31  OE1       31.2370   81.6710   47.1910 O.2   269  GLN269     -0.2717
     32  NE2       29.3690   81.9270   48.4520 N.am  269  GLN269     -0.0878
     33  N         32.1640   77.1200   48.5860 N.am  270  LEU270     -0.1966
     34  CA        32.9180   75.9200   48.2520 C.3   270  LEU270      0.1728
     35  C         34.1610   76.2640   47.4800 C.2   270  LEU270      0.2616
     36  O         35.1990   75.6020   47.6260 O.2   270  LEU270     -0.2715
     37  CB        32.0700   74.9530   47.4320 C.3   270  LEU270      0.0311
     38  CG        31.0090   74.2140   48.2360 C.3   270  LEU270      0.0022
     39  CD1       30.2140   73.3520   47.2970 C.3   270  LEU270      0.0001
     40  CD2       31.6070   73.3980   49.3730 C.3   270  LEU270      0.0001
     41  N         34.0590   77.2890   46.6470 N.am  271  ASN271     -0.1972
     42  CA        35.2090   77.7070   45.8710 C.3   271  ASN271      0.1688
     43  C         35.5820   79.1640   46.0890 C.2   271  ASN271      0.2292
     44  O         34.7220   80.0200   46.1820 O.2   271  ASN271     -0.2864
     45  CB        35.0740   77.3320   44.3850 C.3   271  ASN271      0.1181
     46  CG        33.6470   77.3050   43.9120 C.2   271  ASN271      0.2629
     47  OD1       32.9310   78.2950   44.0460 O.2   271  ASN271     -0.2716
     48  ND2       33.2220   76.1780   43.3460 N.am  271  ASN271     -0.0877
     49  N         35.2070   84.6890   39.3730 N.3   287  GLN287     -0.1231
     50  CA        35.4560   83.2580   39.5200 C.3   287  GLN287      0.1698
     51  C         35.6350   82.5880   38.1630 C.2   287  GLN287      0.2592
     52  O         34.8920   82.8720   37.2170 O.2   287  GLN287     -0.2718
     53  CB        34.2900   82.6140   40.2520 C.3   287  GLN287      0.0381
     54  CG        34.5980   81.2490   40.7760 C.3   287  GLN287      0.0905
     55  CD        33.3690   80.4000   40.9690 C.2   287  GLN287      0.2608
     56  OE1       32.2810   80.9100   41.2420 O.2   287  GLN287     -0.2717
     57  NE2       33.5350   79.0820   40.8320 N.am  287  GLN287     -0.0878
     58  N         36.6370   81.7230   38.0620 N.am  288  ASN288     -0.1960
     59  CA        36.8220   80.9080   36.8740 C.3   288  ASN288      0.1819
     60  C         36.0870   79.5820   36.9960 C.2   288  ASN288      0.2621
     61  O         36.4780   78.7090   37.7810 O.2   288  ASN288     -0.2715
     62  CB        38.2950   80.6490   36.5960 C.3   288  ASN288      0.1195
     63  CG        38.5050   79.8140   35.3520 C.2   288  ASN288      0.2630
     64  OD1       39.0700   78.7230   35.4030 O.2   288  ASN288     -0.2716
     65  ND2       38.0340   80.3190   34.2270 N.am  288  ASN288     -0.0877
     66  N         35.0190   79.4490   36.2170 N.am  289  TYR289     -0.1960
     67  CA        34.2180   78.2420   36.1980 C.3   289  TYR289      0.1771
     68  C         34.9410   77.1690   35.4260 C.2   289  TYR289      0.2619
     69  O         35.4730   77.4130   34.3480 O.2   289  TYR289     -0.2715
     70  CB        32.8420   78.5250   35.6010 C.3   289  TYR289      0.0574
     71  CG        31.9580   79.2790   36.5590 C.ar  289  TYR289     -0.0198
     72  CD1       31.3860   80.5040   36.2060 C.ar  289  TYR289     -0.0009
     73  CD2       31.7160   78.7760   37.8420 C.ar  289  TYR289     -0.0009
     74  CE1       30.5730   81.2010   37.1090 C.ar  289  TYR289      0.0417
     75  CE2       30.9120   79.4560   38.7460 C.ar  289  TYR289      0.0417
     76  CZ        30.3460   80.6670   38.3830 C.ar  289  TYR289      0.1957
     77  OH        29.5530   81.3250   39.3000 O.3   289  TYR289     -0.2866
     78  N         34.9820   75.9810   36.0050 N.am  290  VAL290     -0.1963
     79  CA        35.6620   74.8830   35.3710 C.3   290  VAL290      0.1727
     80  C         34.6540   73.7900   35.0620 C.2   290  VAL290      0.2616
     81  O         33.6730   73.5920   35.7920 O.2   290  VAL290     -0.2715
     82  CB        36.8570   74.4110   36.1950 C.3   290  VAL290      0.0290
     83  CG1       36.4460   73.3480   37.2070 C.3   290  VAL290      0.0023
     84  CG2       37.9610   73.9280   35.2810 C.3   290  VAL290      0.0023
     85  N         34.8960   73.1160   33.9440 N.am  291  ASP291     -0.1957
     86  CA        33.9700   72.1650   33.3800 C.3   291  ASP291      0.1840
     87  C         33.9580   70.8150   34.1050 C.2   291  ASP291      0.2623
     88  O         32.9280   70.1370   34.1280 O.2   291  ASP291     -0.2715
     89  CB        34.3300   71.9670   31.9200 C.3   291  ASP291      0.1450
     90  CG        33.2140   71.3570   31.1460 C.2   291  ASP291      0.3671
     91  OD1       32.2640   72.0920   30.8040 O.co2 291  ASP291     -0.2456
     92  OD2       33.2790   70.1350   30.9020 O.co2 291  ASP291     -0.2456
     93  N         35.1000   70.4370   34.6830 N.am  292  SER292     -0.1936
     94  CA        35.2450   69.1680   35.3870 C.3   292  SER292      0.2055
     95  C         36.3270   69.2350   36.4490 C.2   292  SER292      0.2642
     96  O         37.3690   69.8660   36.2340 O.2   292  SER292     -0.2714
     97  CB        35.6310   68.0650   34.4140 C.3   292  SER292      0.2130
     98  OG        36.3730   67.0620   35.0870 O.3   292  SER292     -0.2179
     99  N         36.1070   68.5540   37.5710 N.am  293  ILE293     -0.1977
    100  CA        37.1290   68.4770   38.6050 C.3   293  ILE293      0.1596
    101  C         37.6890   67.0540   38.6830 C.2   293  ILE293      0.2287
    102  O         38.1870   66.6050   39.7310 O.2   293  ILE293     -0.2864
    103  CB        36.5860   68.9640   39.9440 C.3   293  ILE293      0.0276
    104  CG1       35.4250   68.0770   40.4110 C.3   293  ILE293      0.0022
    105  CG2       36.1290   70.4170   39.8060 C.3   293  ILE293      0.0022
    106  CD1       35.1650   68.1340   41.9060 C.3   293  ILE293      0.0001
@<TRIPOS>BOND
     1    91    90   ar
     2    92    90   ar
     3    90    89    1
     4    89    86    1
     5    86    85    1
     6    86    87    1
     7    85    80   am
     8    87    88    2
     9    87    93   am
    10    65    63   am
    11    69    68    2
    12    97    98    1
    13    97    94    1
    14    93    94    1
    15    80    79    1
    16    80    81    2
    17    84    82    1
    18    63    64    2
    19    63    62    1
    20    79    78    1
    21    79    82    1
    22    94    95    1
    23    68    78   am
    24    68    67    1
    25    70    67    1
    26    70    71    1
    27    82    83    1
    28    67    66    1
    29    72    71   ar
    30    72    74   ar
    31    66    60   am
    32    96    95    2
    33    95    99   am
    34    71    73   ar
    35    62    59    1
    36    59    60    1
    37    59    58    1
    38    60    61    2
    39    74    76   ar
    40    52    51    2
    41     7     9   ar
    42     7     6   ar
    43    99   100    1
    44     9    10   ar
    45    73    75   ar
    46    58    51   am
    47    51    50    1
    48     6     5    1
    49     6     8   ar
    50     5     2    1
    51    76    75   ar
    52    76    77    1
    53   100   101    1
    54   100   103    1
    55    10     8   ar
    56    10    12   ar
    57   101   102    2
    58     3     2    1
    59     3     4    2
    60     8    11   ar
    61     2     1    1
    62    12    14   ar
    63    49    50    1
    64    50    53    1
    65   105   103    1
    66   103   104    1
    67    11    13   ar
    68    53    54    1
    69    14    13   ar
    70   104   106    1
    71    54    55    1
    72    57    55   am
    73    55    56    2
    74    22    21    1
    75    22    23    1
    76    21    20    1
    77    48    46   am
    78    46    47    2
    79    46    45    1
    80    19    20    1
    81    19    16    1
    82    45    42    1
    83    15    16    1
    84    16    17    1
    85    42    43    1
    86    42    41    1
    87    43    44    2
    88    41    35   am
    89    18    17    2
    90    31    30    2
    91    39    38    1
    92    37    38    1
    93    37    34    1
    94    35    36    2
    95    35    34    1
    96    38    40    1
    97    34    33    1
    98    30    32   am
    99    30    29    1
   100    33    26   am
   101    26    25    1
   102    26    27    2
   103    29    28    1
   104    28    25    1
   105    25    24    1
