@<TRIPOS>MOLECULE
tmp/1zpzA00.pdb
 213 209 0 0 0
SMALL
GASTEIGER

@<TRIPOS>ATOM
      1  N          8.8750   28.8850   -0.0230 N.3    26  ARG26      -0.1245
      2  CA         8.8230   27.4890    0.3850 C.3    26  ARG26       0.1563
      3  C          7.4180   26.9310    0.2160 C.2    26  ARG26       0.2260
      4  O          6.4380   27.6820    0.2030 O.2    26  ARG26      -0.2867
      5  CB         9.3060   27.3220    1.8360 C.3    26  ARG26       0.0307
      6  CG         8.6700   28.2220    2.8820 C.3    26  ARG26       0.0489
      7  CD         7.3260   27.7160    3.3170 C.3    26  ARG26       0.2205
      8  NE         7.0510   28.0000    4.7240 N.pl3  26  ARG26      -0.0865
      9  CZ         5.9280   27.6500    5.3480 C.cat  26  ARG26       0.5346
     10  NH1        4.9720   27.0050    4.6930 N.pl3  26  ARG26       0.1354
     11  NH2        5.7550   27.9460    6.6250 N.pl3  26  ARG26       0.1354
     12  N          3.9390   25.7500    0.8950 N.3    28  LEU28      -0.1231
     13  CA         3.0750   26.1760    1.9880 C.3    28  LEU28       0.1693
     14  C          1.9720   25.1710    2.2440 C.2    28  LEU28       0.2592
     15  O          1.7890   24.7130    3.3680 O.2    28  LEU28      -0.2718
     16  CB         2.4350   27.5290    1.6810 C.3    28  LEU28       0.0284
     17  CG         1.3890   27.9980    2.6980 C.3    28  LEU28       0.0019
     18  CD1        2.0080   28.1050    4.0820 C.3    28  LEU28       0.0001
     19  CD2        0.8330   29.3410    2.2680 C.3    28  LEU28       0.0001
     20  N          1.2310   24.8350    1.1930 N.am   29  CYS29      -0.1970
     21  CA         0.1260   23.8950    1.3120 C.3    29  CYS29       0.1712
     22  C         -0.2030   23.2580   -0.0070 C.2    29  CYS29       0.2296
     23  O          0.3390   23.6310   -1.0410 O.2    29  CYS29      -0.2864
     24  CB        -1.1250   24.6060    1.8120 C.3    29  CYS29       0.0983
     25  SG        -1.2440   24.8180    3.6160 S.3    29  CYS29      -0.0798
     26  N         -7.0520   27.2140    7.0180 N.3    44  HIS44      -0.1226
     27  CA        -5.9730   27.3720    7.9830 C.3    44  HIS44       0.1752
     28  C         -4.6160   27.5960    7.3170 C.2    44  HIS44       0.2596
     29  O         -3.6530   27.9810    7.9780 O.2    44  HIS44      -0.2718
     30  CB        -5.9150   26.1820    8.9570 C.3    44  HIS44       0.0759
     31  CG        -5.1970   24.9780    8.4280 C.ar   44  HIS44       0.0818
     32  ND1       -5.8440   23.9390    7.7920 N.ar   44  HIS44      -0.2268
     33  CD2       -3.8860   24.6380    8.4610 C.ar   44  HIS44       0.1154
     34  CE1       -4.9650   23.0120    7.4590 C.ar   44  HIS44       0.1986
     35  NE2       -3.7690   23.4110    7.8540 N.ar   44  HIS44      -0.2212
     36  N         -4.5420   27.3800    6.0080 N.am   45  CYS45      -0.1970
     37  CA        -3.2900   27.5840    5.2890 C.3    45  CYS45       0.1712
     38  C         -2.9290   29.0560    5.1770 C.2    45  CYS45       0.2296
     39  O         -1.8140   29.4020    4.7940 O.2    45  CYS45      -0.2864
     40  CB        -3.3610   26.9770    3.8900 C.3    45  CYS45       0.0983
     41  SG        -3.2240   25.1670    3.8970 S.3    45  CYS45      -0.0798
     42  N         -9.0250   25.1750   12.4010 N.3    88  ALA88      -0.1231
     43  CA        -9.1480   24.0310   11.5070 C.3    88  ALA88       0.1694
     44  C         -9.9020   22.9270   12.2400 C.2    88  ALA88       0.2591
     45  O        -10.7330   22.2270   11.6610 O.2    88  ALA88      -0.2718
     46  CB        -7.7570   23.5320   11.0920 C.3    88  ALA88       0.0304
     47  N         -9.6140   22.8010   13.5300 N.am   89  GLU89      -0.1979
     48  CA       -10.2190   21.7750   14.3670 C.3    89  GLU89       0.1602
     49  C        -11.6720   22.0440   14.7670 C.2    89  GLU89       0.2287
     50  O        -12.2430   21.3010   15.5650 O.2    89  GLU89      -0.2864
     51  CB        -9.3480   21.5700   15.6110 C.3    89  GLU89       0.0415
     52  CG        -7.8730   21.4060   15.2570 C.3    89  GLU89       0.1163
     53  CD        -6.9640   21.3780   16.4600 C.2    89  GLU89       0.3649
     54  OE1       -6.7840   20.2950   17.0590 O.co2  89  GLU89      -0.2457
     55  OE2       -6.4290   22.4500   16.8130 O.co2  89  GLU89      -0.2457
     56  N          5.4310   15.8330    4.7970 N.3   130  TYR130     -0.1241
     57  CA         6.2370   14.9190    5.5890 C.3   130  TYR130      0.1605
     58  C          5.8880   13.4540    5.3880 C.2   130  TYR130      0.2264
     59  O          4.7800   13.1080    4.9820 O.2   130  TYR130     -0.2867
     60  CB         6.0600   15.2440    7.0650 C.3   130  TYR130      0.0534
     61  CG         6.6760   16.5430    7.4970 C.ar  130  TYR130     -0.0201
     62  CD1        7.1080   17.4780    6.5670 C.ar  130  TYR130     -0.0009
     63  CD2        6.8360   16.8300    8.8440 C.ar  130  TYR130     -0.0009
     64  CE1        7.6890   18.6650    6.9740 C.ar  130  TYR130      0.0417
     65  CE2        7.4090   18.0030    9.2590 C.ar  130  TYR130      0.0417
     66  CZ         7.8380   18.9200    8.3290 C.ar  130  TYR130      0.1957
     67  OH         8.4320   20.0790    8.7630 O.3   130  TYR130     -0.2866
     68  N          5.8320   12.5730   11.3400 N.3   133  LEU133     -0.1245
     69  CA         5.6740   13.7970   12.1320 C.3   133  LEU133      0.1561
     70  C          6.8150   14.7990   12.0000 C.2   133  LEU133      0.2260
     71  O          6.5950   15.9670   11.6740 O.2   133  LEU133     -0.2867
     72  CB         5.4530   13.4650   13.6120 C.3   133  LEU133      0.0270
     73  CG         4.9240   14.6720   14.3950 C.3   133  LEU133      0.0019
     74  CD1        3.9660   15.4570   13.5120 C.3   133  LEU133      0.0001
     75  CD2        4.2300   14.2100   15.6760 C.3   133  LEU133      0.0001
     76  N        -11.9620   16.0810   20.5780 N.3   161  HIS161     -0.1241
     77  CA       -12.4180   16.9280   19.4830 C.3   161  HIS161      0.1621
     78  C        -13.8200   16.5340   19.0110 C.2   161  HIS161      0.2264
     79  O        -14.2240   15.3800   19.0520 O.2   161  HIS161     -0.2867
     80  CB       -11.4210   16.7940   18.3300 C.3   161  HIS161      0.0745
     81  CG       -10.0610   17.2630   18.7810 C.ar  161  HIS161      0.0817
     82  ND1       -9.1460   16.4470   19.3610 N.ar  161  HIS161     -0.2268
     83  CD2       -9.5030   18.5400   18.6630 C.ar  161  HIS161      0.1154
     84  CE1       -8.0620   17.2150   19.5820 C.ar  161  HIS161      0.1986
     85  NE2       -8.2480   18.4730   19.1750 N.ar  161  HIS161     -0.2212
     86  N         -1.3080    7.9740    5.9460 N.3   178  ASP178     -0.1225
     87  CA        -2.0740    9.1560    6.3040 C.3   178  ASP178      0.1805
     88  C         -1.3410   10.3850    5.7420 C.2   178  ASP178      0.2598
     89  O         -0.2190   10.2710    5.2330 O.2   178  ASP178     -0.2718
     90  CB        -2.1600    9.1960    7.8390 C.3   178  ASP178      0.1424
     91  CG        -3.0230   10.3280    8.3700 C.2   178  ASP178      0.3668
     92  OD1       -4.0170   10.6950    7.7230 O.co2 178  ASP178     -0.2456
     93  OD2       -2.7240   10.8370    9.4620 O.co2 178  ASP178     -0.2456
     94  N         -1.9770   11.5490    5.8070 N.am  179  ALA179     -0.1966
     95  CA        -1.3440   12.7730    5.3290 C.3   179  ALA179      0.1728
     96  C         -0.5620   13.3390    6.5080 C.2   179  ALA179      0.2616
     97  O         -0.8290   12.9820    7.6520 O.2   179  ALA179     -0.2715
     98  CB        -2.3970   13.7660    4.8680 C.3   179  ALA179      0.0334
     99  N          0.4100   14.2030    6.2430 N.am  180  CYS180     -0.1954
    100  CA         1.1850   14.7890    7.3280 C.3   180  CYS180      0.1843
    101  C          1.4560   16.2610    7.0330 C.2   180  CYS180      0.2625
    102  O          0.9270   16.8040    6.0610 O.2   180  CYS180     -0.2714
    103  CB         2.4930   14.0230    7.5090 C.3   180  CYS180      0.0997
    104  SG         3.2570   14.1870    9.1570 S.3   180  CYS180     -0.0797
    105  N          2.2730   16.9050    7.8650 N.am  181  LYS181     -0.1963
    106  CA         2.5750   18.3290    7.6920 C.3   181  LYS181      0.1728
    107  C          3.0420   18.6830    6.2830 C.2   181  LYS181      0.2617
    108  O          4.0570   18.1660    5.8000 O.2   181  LYS181     -0.2715
    109  CB         3.6310   18.7810    8.7070 C.3   181  LYS181      0.0311
    110  CG         3.3180   18.3900   10.1420 C.3   181  LYS181      0.0038
    111  CD         1.8780   18.6750   10.4980 C.3   181  LYS181      0.0206
    112  CE         1.6170   18.3770   11.9730 C.3   181  LYS181      0.1093
    113  NZ         0.1720   18.4350   12.3390 N.3   181  LYS181     -0.1314
    114  N          2.3050   19.5790    5.6330 N.am  182  GLY182     -0.1940
    115  CA         2.6520   19.9710    4.2810 C.3   182  GLY182      0.2014
    116  C          1.6520   19.4490    3.2550 C.2   182  GLY182      0.2639
    117  O          1.6650   19.8750    2.0950 O.2   182  GLY182     -0.2714
    118  N          0.7900   18.5230    3.6680 N.am  183  ASP183     -0.1957
    119  CA        -0.2160   17.9860    2.7680 C.3   183  ASP183      0.1840
    120  C         -1.4900   18.8070    2.9310 C.2   183  ASP183      0.2622
    121  O         -2.4270   18.6830    2.1420 O.2   183  ASP183     -0.2715
    122  CB        -0.5020   16.5110    3.0840 C.3   183  ASP183      0.1450
    123  CG         0.6890   15.6170    2.8170 C.2   183  ASP183      0.3671
    124  OD1        1.1630   15.5950    1.6610 O.co2 183  ASP183     -0.2456
    125  OD2        1.1520   14.9360    3.7580 O.co2 183  ASP183     -0.2456
    126  N         -1.5090   19.6390    3.9670 N.am  184  SER184     -0.1950
    127  CA        -2.6420   20.5040    4.2690 C.3   184  SER184      0.1924
    128  C         -3.1240   21.2180    3.0160 C.2   184  SER184      0.2314
    129  O         -2.3330   21.5260    2.1270 O.2   184  SER184     -0.2863
    130  CB        -2.2480   21.5350    5.3270 C.3   184  SER184      0.2116
    131  OG        -2.3270   20.9820    6.6250 O.3   184  SER184     -0.2180
    132  N         -7.3820   18.1540    2.9940 N.3   202  THR202     -0.1203
    133  CA        -6.5500   17.7800    4.1290 C.3   202  THR202      0.1994
    134  C         -6.6090   18.8860    5.1860 C.2   202  THR202      0.2619
    135  O         -6.3290   20.0500    4.8970 O.2   202  THR202     -0.2717
    136  CB        -5.0960   17.5490    3.6540 C.3   202  THR202      0.1784
    137  OG1       -5.0850   16.4950    2.6840 O.3   202  THR202     -0.2211
    138  CG2       -4.1930   17.1670    4.8150 C.3   202  THR202      0.0376
    139  N         -6.9780   18.5270    6.4120 N.am  203  SER203     -0.1937
    140  CA        -7.0880   19.5380    7.4550 C.3   203  SER203      0.2055
    141  C         -6.2130   19.3730    8.6970 C.2   203  SER203      0.2643
    142  O         -5.3510   20.2060    8.9550 O.2   203  SER203     -0.2714
    143  CB        -8.5430   19.6820    7.8900 C.3   203  SER203      0.2130
    144  OG        -8.6880   20.8350    8.6940 O.3   203  SER203     -0.2179
    145  N         -6.4500   18.3190    9.4740 N.am  204  TRP204     -0.1959
    146  CA        -5.6760   18.0930   10.6820 C.3   204  TRP204      0.1771
    147  C         -5.6370   16.6400   11.1360 C.2   204  TRP204      0.2620
    148  O         -6.0230   15.7310   10.3950 O.2   204  TRP204     -0.2715
    149  CB        -6.2130   18.9540   11.8230 C.3   204  TRP204      0.0590
    150  CG        -7.6570   18.6970   12.2100 C.ar  204  TRP204      0.0006
    151  CD1       -8.7750   19.2040   11.6090 C.ar  204  TRP204      0.0946
    152  CD2       -8.1210   17.9410   13.3420 C.ar  204  TRP204      0.0152
    153  NE1       -9.9020   18.8230   12.3050 N.ar  204  TRP204     -0.2442
    154  CE2       -9.5270   18.0470   13.3710 C.ar  204  TRP204      0.0810
    155  CE3       -7.4810   17.1920   14.3350 C.ar  204  TRP204      0.0012
    156  CZ2      -10.3020   17.4330   14.3530 C.ar  204  TRP204      0.0191
    157  CZ3       -8.2540   16.5840   15.3120 C.ar  204  TRP204      0.0001
    158  CH2       -9.6500   16.7090   15.3110 C.ar  204  TRP204      0.0015
    159  N         -5.1660   16.4380   12.3670 N.am  205  GLY205     -0.1940
    160  CA        -5.0650   15.1040   12.9390 C.3   205  GLY205      0.2014
    161  C         -3.9990   15.0570   14.0170 C.2   205  GLY205      0.2639
    162  O         -3.1300   15.9250   14.0580 O.2   205  GLY205     -0.2714
    163  N         -4.0650   14.0600   14.8980 N.am  206  GLU206     -0.1963
    164  CA        -3.0760   13.9120   15.9710 C.3   206  GLU206      0.1733
    165  C         -1.9010   13.1180   15.4290 C.2   206  GLU206      0.2617
    166  O         -2.0180   11.9190   15.1690 O.2   206  GLU206     -0.2715
    167  CB        -3.6720   13.1710   17.1710 C.3   206  GLU206      0.0429
    168  CG        -2.7490   13.1550   18.3870 C.3   206  GLU206      0.1163
    169  CD        -2.4720   14.5530   18.9080 C.2   206  GLU206      0.3649
    170  OE1       -3.4000   15.1770   19.4650 O.co2 206  GLU206     -0.2457
    171  OE2       -1.3320   15.0340   18.7520 O.co2 206  GLU206     -0.2457
    172  N         -0.7700   13.7920   15.2590 N.am  207  GLY207     -0.1940
    173  CA         0.4010   13.1300   14.7210 C.3   207  GLY207      0.2014
    174  C          0.1690   12.8140   13.2590 C.2   207  GLY207      0.2639
    175  O         -0.5880   13.5080   12.5730 O.2   207  GLY207     -0.2714
    176  N          0.8130   11.7560   12.7810 N.am  208  CYS208     -0.1953
    177  CA         0.6760   11.3360   11.3890 C.3   208  CYS208      0.1843
    178  C          0.6900    9.8210   11.2670 C.2   208  CYS208      0.2625
    179  O          1.6550    9.1760   11.6580 O.2   208  CYS208     -0.2714
    180  CB         1.8070   11.9270   10.5540 C.3   208  CYS208      0.0997
    181  SG         1.7380   13.7380   10.4330 S.3   208  CYS208     -0.0797
    182  N         -0.4010    9.2670   10.7420 N.am  209  ALA209     -0.1977
    183  CA        -0.5370    7.8280   10.5330 C.3   209  ALA209      0.1597
    184  C         -0.4490    6.9830   11.7990 C.2   209  ALA209      0.2287
    185  O         -0.0570    5.8190   11.7420 O.2   209  ALA209     -0.2864
    186  CB         0.5020    7.3550    9.5350 C.3   209  ALA209      0.0319
    187  N         -5.9170    6.9440   14.7310 N.3   213  ARG213     -0.1245
    188  CA        -5.9150    8.3990   14.6340 C.3   213  ARG213      0.1563
    189  C         -6.1460    8.8010   13.1810 C.2   213  ARG213      0.2260
    190  O         -5.2440    9.2770   12.4980 O.2   213  ARG213     -0.2867
    191  CB        -4.5860    8.9590   15.1360 C.3   213  ARG213      0.0307
    192  CG        -4.3570    8.7850   16.6300 C.3   213  ARG213      0.0489
    193  CD        -5.3810    9.5620   17.4330 C.3   213  ARG213      0.2205
    194  NE        -4.9010    9.8560   18.7810 N.pl3 213  ARG213     -0.0865
    195  CZ        -5.4920   10.7020   19.6190 C.cat 213  ARG213      0.5346
    196  NH1       -6.5940   11.3430   19.2540 N.pl3 213  ARG213      0.1354
    197  NH2       -4.9720   10.9160   20.8190 N.pl3 213  ARG213      0.1354
    198  N         -7.0790   10.7010    9.7520 N.3   215  GLY215     -0.1225
    199  CA        -6.7570   12.0580    9.3800 C.3   215  GLY215      0.1811
    200  C         -8.0760   12.7720    9.2030 C.2   215  GLY215      0.2280
    201  O         -8.9950   12.2340    8.6000 O.2   215  GLY215     -0.2866
    202  N        -10.3670   15.5130    7.5210 N.3   217  TYR217     -0.1241
    203  CA       -10.4380   16.3380    6.3170 C.3   217  TYR217      0.1605
    204  C        -11.7300   17.1430    6.2760 C.2   217  TYR217      0.2264
    205  O        -12.6950   16.8090    6.9580 O.2   217  TYR217     -0.2867
    206  CB       -10.3940   15.4590    5.0660 C.3   217  TYR217      0.0534
    207  CG        -9.1300   14.6510    4.8970 C.ar  217  TYR217     -0.0201
    208  CD1       -8.8400   13.5850    5.7400 C.ar  217  TYR217     -0.0009
    209  CD2       -8.2220   14.9570    3.8920 C.ar  217  TYR217     -0.0009
    210  CE1       -7.6840   12.8460    5.5840 C.ar  217  TYR217      0.0417
    211  CE2       -7.0640   14.2230    3.7290 C.ar  217  TYR217      0.0417
    212  CZ        -6.8040   13.1720    4.5750 C.ar  217  TYR217      0.1957
    213  OH        -5.6580   12.4440    4.3970 O.3   217  TYR217     -0.2866
@<TRIPOS>BOND
     1    23    22    2
     2     1     2    1
     3    22    21    1
     4     4     3    2
     5     3     2    1
     6     2     5    1
     7    12    13    1
     8    20    21    1
     9    20    14   am
    10    21    24    1
    11   124   123   ar
    12    16    13    1
    13    16    17    1
    14    24    25    1
    15     5     6    1
    16    13    14    1
    17   117   116    2
    18   129   128    2
    19   121   120    2
    20    14    15    2
    21    19    17    1
    22   137   136    1
    23    17    18    1
    24   119   120    1
    25   119   122    1
    26   119   118    1
    27   123   122    1
    28   123   125   ar
    29     6     7    1
    30   120   126   am
    31   132   133    1
    32   128   127    1
    33   116   118   am
    34   116   115    1
    35     7     8    1
    36    25    41    1
    37   136   133    1
    38   136   138    1
    39   211   209   ar
    40   211   212   ar
    41    40    41    1
    42    40    37    1
    43   209   207   ar
    44   126   127    1
    45   133   134    1
    46   127   130    1
    47   115   114    1
    48   213   212    1
    49   212   210   ar
    50    10     9    1
    51     8     9    2
    52    39    38    2
    53    56    57    1
    54    98    95    1
    55   207   206    1
    56   207   208   ar
    57   135   134    2
    58    59    58    2
    59   206   203    1
    60    38    37    1
    61   134   139   am
    62    89    88    2
    63    37    36    1
    64   130   131    1
    65    95    94    1
    66    95    96    1
    67     9    11    1
    68    58    57    1
    69   210   208   ar
    70    57    60    1
    71   114   107   am
    72    88    94   am
    73    88    87    1
    74   108   107    2
    75    86    87    1
    76    36    28   am
    77   102   101    2
    78    99    96   am
    79    99   100    1
    80   204   203    1
    81   204   205    2
    82   107   106    1
    83    87    90    1
    84   203   202    1
    85   139   140    1
    86    96    97    2
    87    62    64   ar
    88    62    61   ar
    89    64    66   ar
    90    26    27    1
    91   101   100    1
    92   101   105   am
    93    60    61    1
    94    28    29    2
    95    28    27    1
    96   100   103    1
    97   140   143    1
    98   140   141    1
    99    34    32   ar
   100    34    35   ar
   101    61    63   ar
   102   103   104    1
   103   106   105    1
   104   106   109    1
   105    92    91   ar
   106    32    31   ar
   107    90    91    1
   108    35    33   ar
   109   143   144    1
   110    27    30    1
   111    66    67    1
   112    66    65   ar
   113    91    93   ar
   114    31    33   ar
   115    31    30    1
   116   201   200    2
   117   141   142    2
   118   141   145   am
   119   109   110    1
   120    63    65   ar
   121   104   181    1
   122   200   199    1
   123   199   198    1
   124   145   146    1
   125   186   183    1
   126   110   111    1
   127   148   147    2
   128   181   180    1
   129   111   112    1
   130   183   182    1
   131   183   184    1
   132   180   177    1
   133   146   147    1
   134   146   149    1
   135   182   178   am
   136    46    43    1
   137   147   159   am
   138   178   177    1
   139   178   179    2
   140    68    69    1
   141   177   176    1
   142    43    44    1
   143    43    42    1
   144   151   150   ar
   145   151   153   ar
   146    45    44    2
   147    71    70    2
   148   185   184    2
   149   149   150    1
   150   112   113    1
   151    70    69    1
   152    69    72    1
   153   150   152   ar
   154    44    47   am
   155   153   154   ar
   156   159   160    1
   157   190   189    2
   158   175   174    2
   159   176   174   am
   160   160   161    1
   161   189   188    1
   162   174   173    1
   163   152   154   ar
   164   152   155   ar
   165   154   156   ar
   166    74    73    1
   167    47    48    1
   168    72    73    1
   169   161   162    2
   170   161   163   am
   171   155   157   ar
   172   156   158   ar
   173    48    49    1
   174    48    51    1
   175    73    75    1
   176   188   187    1
   177   188   191    1
   178   173   172    1
   179    49    50    2
   180   163   164    1
   181   191   192    1
   182   166   165    2
   183    52    51    1
   184    52    53    1
   185   172   165   am
   186   158   157   ar
   187   165   164    1
   188   164   167    1
   189    53    55   ar
   190    53    54   ar
   191   192   193    1
   192   167   168    1
   193   193   194    1
   194    80    81    1
   195    80    77    1
   196   168   169    1
   197    83    81   ar
   198    83    85   ar
   199   171   169   ar
   200   194   195    2
   201    81    82   ar
   202   169   170   ar
   203    78    79    2
   204    78    77    1
   205    85    84   ar
   206   196   195    1
   207    82    84   ar
   208    77    76    1
   209   195   197    1
