@<TRIPOS>MOLECULE
tmp/1zq1B00.pdb
 76 72 0 0 0
SMALL
GASTEIGER

@<TRIPOS>ATOM
      1  N         39.3070  -15.2490   -1.9470 N.3    98  GLY98      -0.1210
      2  CA        39.2370  -15.7010   -3.3240 C.3    98  GLY98       0.1956
      3  C         38.3480  -14.8600   -4.2290 C.2    98  GLY98       0.2612
      4  O         38.3840  -15.0280   -5.4510 O.2    98  GLY98      -0.2717
      5  N         37.5430  -13.9720   -3.6460 N.am   99  GLY99      -0.1956
      6  CA        36.6840  -13.1110   -4.4430 C.3    99  GLY99       0.1869
      7  C         37.4390  -11.8810   -4.9320 C.2    99  GLY99       0.2309
      8  O         37.3930  -10.8310   -4.2970 O.2    99  GLY99      -0.2863
      9  N         36.9340  -20.1940   -5.0530 N.3   143  PHE143     -0.1227
     10  CA        35.6490  -19.8060   -5.6280 C.3   143  PHE143      0.1736
     11  C         34.5770  -20.1200   -4.5830 C.2   143  PHE143      0.2596
     12  O         34.5970  -21.1870   -3.9790 O.2   143  PHE143     -0.2718
     13  CB        35.3830  -20.6050   -6.9060 C.3   143  PHE143      0.0547
     14  CG        36.3670  -20.3380   -8.0210 C.ar  143  PHE143     -0.0202
     15  CD1       36.6330  -21.3180   -8.9710 C.ar  143  PHE143     -0.0042
     16  CD2       37.0220  -19.1050   -8.1310 C.ar  143  PHE143     -0.0042
     17  CE1       37.5370  -21.0810  -10.0160 C.ar  143  PHE143     -0.0003
     18  CE2       37.9310  -18.8560   -9.1780 C.ar  143  PHE143     -0.0003
     19  CZ        38.1870  -19.8460  -10.1190 C.ar  143  PHE143     -0.0000
     20  N         33.6440  -19.2030   -4.3550 N.am  144  SER144     -0.1938
     21  CA        32.6150  -19.4530   -3.3530 C.3   144  SER144      0.2055
     22  C         31.8580  -20.7180   -3.6960 C.2   144  SER144      0.2642
     23  O         31.4260  -21.4460   -2.8070 O.2   144  SER144     -0.2714
     24  CB        31.6560  -18.2630   -3.2320 C.3   144  SER144      0.2130
     25  OG        31.4230  -17.6510   -4.4880 O.3   144  SER144     -0.2179
     26  N         31.7190  -20.9750   -4.9940 N.am  145  GLU145     -0.1976
     27  CA        31.0350  -22.1690   -5.4940 C.3   145  GLU145      0.1602
     28  C         31.4340  -23.3620   -4.6360 C.2   145  GLU145      0.2287
     29  O         30.5940  -24.0020   -4.0140 O.2   145  GLU145     -0.2864
     30  CB        31.4540  -22.4110   -6.9360 C.3   145  GLU145      0.0415
     31  CG        31.6520  -21.1180   -7.6730 C.3   145  GLU145      0.1163
     32  CD        32.7020  -21.2450   -8.7290 C.2   145  GLU145      0.3649
     33  OE1       33.6040  -22.0670   -8.5030 O.co2 145  GLU145     -0.2457
     34  OE2       32.6490  -20.5330   -9.7640 O.co2 145  GLU145     -0.2457
     35  N         33.1910  -14.6880   -2.5690 N.3   174  GLY174     -0.1210
     36  CA        32.6390  -14.8650   -3.9040 C.3   174  GLY174      0.1956
     37  C         31.1490  -14.5940   -3.8110 C.2   174  GLY174      0.2613
     38  O         30.5910  -14.5890   -2.7090 O.2   174  GLY174     -0.2717
     39  N         30.4910  -14.3770   -4.9440 N.am  175  THR175     -0.1938
     40  CA        29.0560  -14.0770   -4.9400 C.3   175  THR175      0.2028
     41  C         28.1460  -15.2350   -4.5610 C.2   175  THR175      0.2642
     42  O         27.2990  -15.1110   -3.6810 O.2   175  THR175     -0.2714
     43  CB        28.5870  -13.5770   -6.3080 C.3   175  THR175      0.1808
     44  OG1       29.4700  -12.5510   -6.7700 O.3   175  THR175     -0.2208
     45  CG2       27.2020  -13.0070   -6.1950 C.3   175  THR175      0.0379
     46  N         28.3230  -16.3560   -5.2450 N.am  176  ASP176     -0.1971
     47  CA        27.5070  -17.5410   -5.0320 C.3   176  ASP176      0.1709
     48  C         27.1970  -17.9180   -3.5800 C.2   176  ASP176      0.2293
     49  O         26.0650  -17.7970   -3.1250 O.2   176  ASP176     -0.2864
     50  CB        28.1570  -18.7180   -5.7540 C.3   176  ASP176      0.1436
     51  CG        28.3870  -18.4360   -7.2280 C.2   176  ASP176      0.3671
     52  OD1       27.4320  -18.5320   -8.0290 O.co2 176  ASP176     -0.2456
     53  OD2       29.5290  -18.0910   -7.5900 O.co2 176  ASP176     -0.2456
     54  N         31.9750   -9.0020   -6.0090 N.3   199  ALA199     -0.1231
     55  CA        31.4830   -8.3430   -7.2230 C.3   199  ALA199      0.1694
     56  C         30.7090   -9.2730   -8.1340 C.2   199  ALA199      0.2591
     57  O         31.1990  -10.3280   -8.5350 O.2   199  ALA199     -0.2718
     58  CB        32.6270   -7.7220   -7.9960 C.3   199  ALA199      0.0304
     59  N         29.4960   -8.8500   -8.4660 N.am  200  GLN200     -0.1979
     60  CA        28.6100   -9.6140   -9.3380 C.3   200  GLN200      0.1601
     61  C         29.1740   -9.6270  -10.7570 C.2   200  GLN200      0.2287
     62  O         29.1120  -10.6260  -11.4600 O.2   200  GLN200     -0.2864
     63  CB        27.2320   -8.9810   -9.3280 C.3   200  GLN200      0.0394
     64  CG        26.1580   -9.9080   -9.7600 C.3   200  GLN200      0.0908
     65  CD        26.0950  -11.1430   -8.9100 C.2   200  GLN200      0.2608
     66  OE1       27.0390  -11.9350   -8.8750 O.2   200  GLN200     -0.2717
     67  NE2       24.9820  -11.3230   -8.2190 N.am  200  GLN200     -0.0878
     68  N         20.7520  -14.5810   -1.9330 N.3   247  LYS247     -0.1245
     69  CA        21.0970  -14.1510   -3.2750 C.3   247  LYS247      0.1561
     70  C         19.8680  -14.4800   -4.1260 C.2   247  LYS247      0.2260
     71  O         19.7340  -15.6050   -4.5980 O.2   247  LYS247     -0.2867
     72  CB        22.3240  -14.9050   -3.7800 C.3   247  LYS247      0.0271
     73  CG        22.8540  -14.2770   -5.0280 C.3   247  LYS247      0.0035
     74  CD        23.9800  -15.0270   -5.6640 C.3   247  LYS247      0.0206
     75  CE        24.2760  -14.3480   -6.9730 C.3   247  LYS247      0.1093
     76  NZ        25.4470  -14.9340   -7.6340 N.3   247  LYS247     -0.1314
@<TRIPOS>BOND
     1    62    61    2
     2    61    60    1
     3    19    17   ar
     4    19    18   ar
     5    17    15   ar
     6    34    32   ar
     7    64    63    1
     8    64    65    1
     9    60    63    1
    10    60    59    1
    11    18    16   ar
    12    15    14   ar
    13    65    66    2
    14    65    67   am
    15    32    33   ar
    16    32    31    1
    17    57    56    2
    18    59    56   am
    19    56    55    1
    20    16    14   ar
    21    52    51   ar
    22    14    13    1
    23    58    55    1
    24    31    30    1
    25    76    75    1
    26    53    51   ar
    27    51    50    1
    28    55    54    1
    29    75    74    1
    30    30    27    1
    31    13    10    1
    32    44    43    1
    33    43    45    1
    34    43    40    1
    35    50    47    1
    36    74    73    1
    37    10     9    1
    38    10    11    1
    39    27    26    1
    40    27    28    1
    41     4     3    2
    42    46    47    1
    43    46    41   am
    44    47    48    1
    45    73    72    1
    46    26    22   am
    47    39    40    1
    48    39    37   am
    49    40    41    1
    50     7     6    1
    51     7     8    2
    52    28    29    2
    53    71    70    2
    54    11    20   am
    55    11    12    2
    56    41    42    2
    57    25    24    1
    58     6     5    1
    59    20    21    1
    60     3     5   am
    61     3     2    1
    62    70    69    1
    63    36    37    1
    64    36    35    1
    65    37    38    2
    66    72    69    1
    67    22    21    1
    68    22    23    2
    69    48    49    2
    70    21    24    1
    71     2     1    1
    72    69    68    1
